geometry optimzed in LAMMPS
_audit_creation_date              2020-11-30 
_audit_creation_method            'lammps2cif' 
_symmetry_space_group_name_H-M    'P1' 
_symmetry_Int_Tables_number       1 
_symmetry_cell_setting            triclinic 
loop_ 
_symmetry_equiv_pos_as_xyz 
  x,y,z 
_cell_length_a                    35.72711194 
_cell_length_b                    36.90481558564847 
_cell_length_c                    41.1699041142925 
_cell_angle_alpha                 92.86323294398069 
_cell_angle_beta                  87.36424129034151 
_cell_angle_gamma                 131.61682570331993 
loop_ 
_atom_site_label 
_atom_site_type_symbol 
_atom_site_fract_x 
_atom_site_fract_y 
_atom_site_fract_z 
_atom_site_charge 
N1          N  0.16302276  0.07801013  0.24579684    -0.02700
C2          C  0.12996696  0.08437766  0.24108897    -0.00100
C3          C  0.11047692  0.06876905  0.21045442    -0.23000
C4          C  0.13417053  0.05494969  0.19509752    -0.23200
C5          C  0.17128369  0.06789159  0.21517544    -0.00200
H6          H  0.08328672  0.06895143  0.20020272     0.13600
H7          H  0.13095730  0.04389299  0.16995993     0.13600
N8          N  0.03597038  0.17528536  0.30883006    -0.02700
C9          C  0.03883690  0.14314002  0.32041173    -0.00100
C10         C  0.02214194  0.13243820  0.35227140    -0.23000
C11         C  0.01054495  0.16005747  0.36130894    -0.23200
C12         C  0.02640015  0.19125122  0.33611861    -0.00200
H13         H  0.02412432  0.11197754  0.36878112     0.13600
H14         H  0.00428813  0.16545958  0.38640687     0.13600
N15         N  0.38123229  0.09990639  0.22240779    -0.02700
C16         C  0.36325408  0.12007315  0.21112374    -0.00100
C17         C  0.32063315  0.10315067  0.22863148    -0.23000
C18         C  0.30818348  0.06810894  0.24855917    -0.23200
C19         C  0.34512742  0.06634004  0.24398697    -0.00200
H20         H  0.29679860  0.11019731  0.22338972     0.13600
H21         H  0.27466680  0.04471476  0.26349555     0.13600
N22         N  0.43582151  0.35100447  0.19298318    -0.02700
C23         C  0.42812046  0.38237452  0.19295349    -0.00100
C24         C  0.39926844  0.37182122  0.16671327    -0.23000
C25         C  0.38551359  0.33045071  0.15202229    -0.23200
C26         C  0.40768713  0.31774270  0.16895054    -0.00200
H27         H  0.38197065  0.38654883  0.16253785     0.13600
H28         H  0.35769933  0.30909047  0.13336340     0.13600
N29         N  0.32566628  0.42166885  0.30616359    -0.02700
C30         C  0.36602265  0.42555497  0.30766838    -0.00100
C31         C  0.36917006  0.41362100  0.33807964    -0.23000
C32         C  0.32713288  0.39792915  0.35497433    -0.23200
C33         C  0.30112757  0.40302045  0.33484463    -0.00200
H34         H  0.39491032  0.40951490  0.34531219     0.13600
H35         H  0.31515406  0.38132590  0.37843016     0.13600
N36         N  0.10446817  0.41553860  0.30274650    -0.02700
C37         C  0.13494722  0.40959513  0.31502453    -0.00100
C38         C  0.13988198  0.38334557  0.29294314    -0.23000
C39         C  0.10863100  0.36889076  0.26780037    -0.23200
C40         C  0.08571081  0.38690945  0.27503685    -0.00200
H41         H  0.15845617  0.36985340  0.29700987     0.13600
H42         H  0.10178450  0.34603321  0.24712720     0.13600
Fe43       Fe  0.08705347  0.32168452  0.39988089     1.65800
Fe44       Fe  0.15642574  0.29393388  0.38028392     1.73200
Fe45       Fe  0.21252210  0.41216197  0.39099936     1.54400
O46         O  0.17515433  0.42796548  0.36536220    -0.80900
O47         O  0.20391414  0.31905258  0.41736755    -0.79200
O48         O  0.09570782  0.35753081  0.35928771    -0.83400
O49         O  0.11384309  0.38221849  0.42959948    -0.78300
O50         O  0.23958739  0.40844080  0.34703857    -0.80000
O51         O  0.09637751  0.24466889  0.41219065    -0.82800
C52         C  0.15221025  0.40701585  0.44738441     0.98000
C53         C  0.13431454  0.39947421  0.34942032     1.05400
O54         O  0.15285418  0.34341019  0.38988379    -1.11800
O55         O  0.10894343  0.26716897  0.34164596    -0.74200
O56         O  0.04930427  0.25680783  0.37118609    -0.77700
O57         O  0.19366497  0.42153995  0.43654014    -0.78400
C58         C  0.06293503  0.24262448  0.34833258     0.96900
O59         O  0.08292858  0.28732425  0.44093127    -0.76300
O60         O  0.21948871  0.33741822  0.35072220    -0.81500
C61         C  0.24338400  0.36179904  0.42486853     0.99500
C62         C  0.24957321  0.38146502  0.34251860     1.05400
O63         O  0.25333477  0.39988179  0.41534074    -0.77200
C64         C  0.08779975  0.25600286  0.43946602     1.03700
N65         N  0.36261451  0.09055949  0.02545826    -0.02700
C66         C  0.33672822  0.10136070  0.04186202    -0.00100
C67         C  0.29458615  0.08289791  0.02448758    -0.23000
C68         C  0.29193951  0.05714138  0.99837356    -0.23200
C69         C  0.33300691  0.06129013  0.99988105    -0.00200
H70         H  0.26474029  0.08206559  0.03257506     0.13600
H71         H  0.25988150  0.03237822  0.98287873     0.13600
N72         N  0.32103732  0.40538013  0.45809158    -0.02700
C73         C  0.34772435  0.39357442  0.46717034    -0.00100
C74         C  0.32256046  0.34559673  0.45780812    -0.23000
C75         C  0.28020993  0.32807202  0.44251178    -0.23200
C76         C  0.28031206  0.36544972  0.44275827    -0.00200
H77         H  0.33361850  0.32503541  0.46117287     0.13600
H78         H  0.25307268  0.29227985  0.43143409     0.13600
N79         N  0.38398766  0.29279246  0.04154688    -0.03500
C80         C  0.36920731  0.31325698  0.02663783    -0.00100
C81         C  0.31796554  0.28459468  0.03083208    -0.23000
C82         C  0.30146552  0.24635033  0.04940586    -0.23200
C83         C  0.34294120  0.25240844  0.05607691    -0.00200
H84         H  0.29584263  0.29332770  0.02412842     0.13600
H85         H  0.26415246  0.21982533  0.05973710     0.13600
N86         N  0.11035918  0.40931758  0.49596696    -0.02700
C87         C  0.14578250  0.40889564  0.48292781    -0.00100
C88         C  0.14220143  0.37365371  0.49773491    -0.23000
C89         C  0.09826059  0.34576758  0.51520739    -0.23200
C90         C  0.07860474  0.36706507  0.51228315    -0.00200
H91         H  0.16181498  0.36160087  0.49003241     0.13600
H92         H  0.08049920  0.31154449  0.52615504     0.13600
N93         N  0.13218320  0.06072130  0.06595373    -0.02700
C94         C  0.09016934  0.05493630  0.06459802    -0.00100
C95         C  0.06832171  0.04454047  0.09520324    -0.23000
C96         C  0.10541949  0.06100694  0.11631547    -0.23200
C97         C  0.14474939  0.07176397  0.09784112    -0.00200
H98         H  0.03549533  0.03957050  0.10176483     0.13600
H99         H  0.10516389  0.06981447  0.14153031     0.13600
N100        N  0.06613700  0.19424011  0.48012937    -0.02700
C101        C  0.09945655  0.19143406  0.49196007    -0.00100
C102        C  0.14741079  0.23583122  0.49139444    -0.23000
C103        C  0.14471349  0.26706569  0.47811281    -0.23200
C104        C  0.09569094  0.24084629  0.46940134    -0.00200
H105        H  0.18075052  0.24471547  0.50038803     0.13600
H106        H  0.17612056  0.30473126  0.47362703     0.13600
Fe107      Fe  0.26657207  0.08363511  0.13634562     1.65800
Fe108      Fe  0.28359432  0.18385106  0.15105939     1.73200
Fe109      Fe  0.38139357  0.19350280  0.12361963     1.54400
O110        O  0.39078196  0.17098914  0.16564740    -0.80900
O111        O  0.31737676  0.22496302  0.10918797    -0.79200
O112        O  0.32272574  0.09152560  0.16057035    -0.83400
O113        O  0.29217435  0.08501505  0.09062384    -0.78300
O114        O  0.40707740  0.25788647  0.14603127    -0.80000
O115        O  0.21821846  0.13684692  0.12504439    -0.82800
C116        C  0.33511082  0.10904468  0.07768977     0.98000
C117        C  0.36126859  0.12783146  0.17636536     1.05400
O118        O  0.30977143  0.15337166  0.13726108    -1.11800
O119        O  0.24432624  0.14151400  0.19228972    -0.74200
O120        O  0.22949732  0.07310658  0.18062798    -0.77700
O121        O  0.37344883  0.14062299  0.09435934    -0.78400
C122        C  0.22047564  0.09684230  0.19718302     0.96900
O123        O  0.20947416  0.07237978  0.11197177    -0.76300
O124        O  0.34537430  0.23447807  0.17938459    -0.81500
C125        C  0.34334434  0.22965150  0.08440986     0.99500
C126        C  0.38784408  0.26779011  0.16680230     1.05400
O127        O  0.36812490  0.21578088  0.08361580    -0.77200
C128        C  0.19432874  0.09531800  0.11157373     1.03700
C129        C  0.08659000  0.08457260  0.01205913    -0.19500
C130        C  0.09043768  0.08943352  0.04605149    -0.06100
C131        C  0.09543043  0.12819747  0.06163491     0.14800
C132        C  0.09029968  0.15569672  0.04343659    -0.19600
C133        C  0.08893926  0.15078683  0.50883116    -0.06100
C134        C  0.09053920  0.11684913  0.49274206     0.14800
C135        C  0.09723798  0.11568401  0.45640276    -0.22900
H136        H  0.08315470  0.05603799  0.99956545     0.16100
H137        H  0.09294737  0.18418350  0.05540960     0.16100
C138        C  0.11099977  0.14520707  0.09658801    -0.22900
H139        H  0.13196845  0.12219152  0.45086030     0.06300
H140        H  0.10040313  0.14365599  0.44403582     0.09500
H141        H  0.06492016  0.07951434  0.44618151     0.09500
H142        H  0.14524051  0.15144654  0.10129591     0.09500
H143        H  0.08034578  0.11935604  0.11387390     0.09500
H144        H  0.12062162  0.18032841  0.10200110     0.06300
C145        C  0.12898124  0.45551562  0.04590735    -0.19500
C146        C  0.12655048  0.45201324  0.01185166    -0.06100
C147        C  0.13139918  0.48967210  0.49604133     0.14800
C148        C  0.13874588  0.02723678  0.01406191    -0.19600
C149        C  0.13367030  0.02621295  0.04836047    -0.06100
C150        C  0.12442561  0.48560930  0.06382980     0.14800
C151        C  0.10170736  0.46925260  0.09776864    -0.22900
H152        H  0.12786254  0.42986497  0.05864925     0.16100
H153        H  0.14688053  0.05525473  0.50130074     0.16100
C154        C  0.12969299  0.48829391  0.45958894    -0.22900
H155        H  0.09229690  0.43510400  0.10394323     0.06300
H156        H  0.06850686  0.96552676  0.10066124     0.09500
H157        H  0.12922464  0.99767605  0.11763696     0.09500
H158        H  0.09308989  0.45389045  0.45120468     0.09500
H159        H  0.16030021  0.49063893  0.44888570     0.09500
H160        H  0.13562757  0.01744690  0.45006893     0.06300
C161        C  0.43926335  0.28968188  0.00758287    -0.19500
C162        C  0.43124867  0.30567804  0.03634004    -0.06100
C163        C  0.47057551  0.33749318  0.05780305     0.14800
C164        C  0.01846999  0.35146163  0.05156731    -0.19600
C165        C  0.02929031  0.34248840  0.02068246    -0.06100
C166        C  0.48769679  0.30923862  0.49846089     0.14800
C167        C  0.49653846  0.29435959  0.46640691    -0.22900
H168        H  0.40803534  0.26401653  0.99164961     0.16100
H169        H  0.04684517  0.37131428  0.06971734     0.16100
C170        C  0.46239024  0.35476462  0.08863891    -0.22900
H171        H  0.46128925  0.26756692  0.45278409     0.06300
H172        H  0.51231872  0.27745018  0.47071206     0.09500
H173        H  0.52288640  0.32659036  0.45115126     0.09500
H174        H  0.43371837  0.32306412  0.10353694     0.09500
H175        H  0.44951812  0.37407738  0.08311428     0.09500
H176        H  0.99620071  0.37547115  0.10495119     0.06300
C177        C  0.42749556  0.41663704  0.47013054    -0.19500
C178        C  0.39716955  0.42531244  0.48356462    -0.06100
C179        C  0.39268965  0.42495628  0.02108379     0.14800
C180        C  0.39298581  0.39225983  0.03671566    -0.19600
C181        C  0.40172130  0.36527491  0.01828995    -0.06100
C182        C  0.42571931  0.38327031  0.98739774     0.14800
C183        C  0.43818248  0.35613835  0.46366299    -0.22900
H184        H  0.43891474  0.42499705  0.44480269     0.16100
H185        H  0.38103804  0.38403855  0.06199180     0.16100
C186        C  0.38872594  0.45752142  0.04070966    -0.22900
H187        H  0.44952515  0.37006837  0.43857151     0.06300
H188        H  0.40591368  0.31653363  0.46173780     0.09500
H189        H  0.47084907  0.36426906  0.47451927     0.09500
H190        H  0.35452874  0.43569418  0.05628095     0.09500
H191        H  0.38833378  0.48059475  0.02481496     0.09500
H192        H  0.42169654  0.48172223  0.05668449     0.06300
C193        C  0.43370427  0.09435171  0.01460868    -0.19500
C194        C  0.41669608  0.11881582  0.02330280    -0.06100
C195        C  0.45146971  0.16983842  0.01959766     0.14800
C196        C  0.50036520  0.19334787  0.50707642    -0.19600
C197        C  0.01532331  0.16760436  0.49328652    -0.06100
C198        C  0.97884660  0.11653811  0.99576139     0.14800
C199        C  0.98412371  0.08438861  0.97676351    -0.22900
H200        H  0.40860385  0.05569344  0.01780040     0.16100
H201        H  0.02885915  0.23268855  0.50509688     0.16100
C202        C  0.43836824  0.20024887  0.02837751    -0.22900
H203        H  0.45061986  0.05682725  0.96434704     0.06300
H204        H  0.98792170  0.06434900  0.99346758     0.09500
H205        H  0.01588334  0.10420947  0.45998506     0.09500
H206        H  0.42913886  0.19795798  0.05448238     0.09500
H207        H  0.40694993  0.18910374  0.01345774     0.09500
H208        H  0.47080790  0.23892701  0.02444295     0.06300
C209        C  0.30123760  0.48125360  0.00663095    -0.19500
C210        C  0.32959356  0.02123635  0.98707474    -0.06100
C211        C  0.35226112  0.02407188  0.45837821     0.14800
C212        C  0.35141772  0.48614698  0.44907425    -0.19600
C213        C  0.32633862  0.44595553  0.46903458    -0.06100
C214        C  0.29852017  0.44248617  0.99821481     0.14800
C215        C  0.26699517  0.39875463  0.01946918    -0.22900
H216        H  0.28216557  0.47961523  0.02856276     0.16100
H217        H  0.36908648  0.48699004  0.42666399     0.16100
C218        C  0.37879354  0.06636165  0.43620483    -0.22900
H219        H  0.27876045  0.41001970  0.04510244     0.06300
H220        H  0.22729801  0.38155715  0.01856695     0.09500
H221        H  0.26948522  0.37109645  0.01220352     0.09500
H222        H  0.40931559  0.10051283  0.44933786     0.09500
H223        H  0.35176337  0.06916478  0.42772741     0.09500
H224        H  0.39544526  0.06215516  0.41453067     0.06300
C225        C  0.38490630  0.36083526  0.24519681    -0.19500
C226        C  0.41919680  0.39783878  0.22361532    -0.06100
C227        C  0.43542377  0.44434290  0.22906010     0.14800
C228        C  0.41791431  0.45311349  0.25685657    -0.19600
C229        C  0.38457884  0.41614057  0.27887044    -0.06100
C230        C  0.36674053  0.36896956  0.27242688     0.14800
C231        C  0.32622625  0.32602981  0.29284351    -0.22900
H232        H  0.36995925  0.32437127  0.23968229     0.16100
H233        H  0.42960995  0.48847538  0.26115769     0.16100
C234        C  0.47074603  0.48416332  0.20558084    -0.22900
H235        H  0.31387919  0.29143236  0.28208865     0.06300
H236        H  0.29291897  0.32265367  0.29469184     0.09500
H237        H  0.34008436  0.33004927  0.31745265     0.09500
H238        H  0.45250822  0.47488844  0.18177823     0.09500
H239        H  0.50439844  0.48845629  0.20214296     0.09500
H240        H  0.48277187  0.51928811  0.21469776     0.06300
C241        C  0.45796500  0.32927979  0.23955486    -0.19500
C242        C  0.47276404  0.35762228  0.21234702    -0.06100
C243        C  0.52445630  0.39533654  0.20557454     0.14800
C244        C  0.06150098  0.40474879  0.22688273    -0.19600
C245        C  0.04649364  0.37617351  0.25397511    -0.06100
C246        C  0.49364593  0.33849554  0.26058769     0.14800
C247        C  0.47550034  0.30754655  0.28992638    -0.22900
H248        H  0.41837429  0.30044618  0.24462483     0.16100
H249        H  0.10114029  0.43452623  0.22234625     0.16100
C250        C  0.54192185  0.42529915  0.17585949    -0.22900
H251        H  0.43396842  0.28006341  0.29160720     0.06300
H252        H  0.48937135  0.32995134  0.31258252     0.09500
H253        H  0.48916327  0.28821887  0.28854677     0.09500
H254        H  0.52924029  0.44577919  0.17706770     0.09500
H255        H  0.52648029  0.40105172  0.15402563     0.09500
H256        H  0.08551148  0.45524229  0.17559080     0.06300
C257        C  0.31930570  0.48812258  0.24382089    -0.19500
C258        C  0.34314087  0.03038152  0.26042395    -0.06100
C259        C  0.35748065  0.03730660  0.29306893     0.14800
C260        C  0.35265829  0.50210940  0.30691458    -0.19600
C261        C  0.32924967  0.45769284  0.29039608    -0.06100
C262        C  0.31189886  0.45027128  0.25869932     0.14800
C263        C  0.28497786  0.40228895  0.24108997    -0.22900
H264        H  0.30593558  0.48277922  0.21942270     0.16100
H265        H  0.36563111  0.50718089  0.33139742     0.16100
C266        C  0.37687005  0.08232409  0.31249552    -0.22900
H267        H  0.27294047  0.40212233  0.21664450     0.06300
H268        H  0.25117978  0.37315664  0.25537691     0.09500
H269        H  0.30991097  0.39433714  0.23790018     0.09500
H270        H  0.34795811  0.08538237  0.31406001     0.09500
H271        H  0.41103864  0.11481827  0.30077546     0.09500
H272        H  0.38641930  0.08171340  0.33764634     0.06300
C273        C  0.45998206  0.17459200  0.24593507    -0.19500
C274        C  0.43333727  0.12829381  0.23121477    -0.06100
C275        C  0.45305247  0.10587128  0.23415719     0.14800
C276        C  0.48926100  0.12318917  0.25783545    -0.19600
C277        C  0.01115435  0.16528364  0.27772944    -0.06100
C278        C  0.00121931  0.19417256  0.26730874     0.14800
C279        C  0.03214785  0.24583291  0.27856281    -0.22900
H280        H  0.44762546  0.19414392  0.24254278     0.16100
H281        H  0.49834767  0.10121957  0.26178261     0.16100
C282        C  0.43483072  0.06241650  0.21333159    -0.22900
H283        H  0.03185894  0.26635830  0.25999290     0.06300
H284        H  0.07177011  0.26306389  0.28128922     0.09500
H285        H  0.01679923  0.24784860  0.30187999     0.09500
H286        H  0.40567897  0.05177814  0.19621425     0.09500
H287        H  0.41936334  0.03133821  0.22885115     0.09500
H288        H  0.46672975  0.07117770  0.19873132     0.06300
C289        C  0.16900602  0.50584891  0.30095021    -0.19500
C290        C  0.11796519  0.46253513  0.30277857    -0.06100
C291        C  0.08221173  0.46536014  0.29455636     0.14800
C292        C  0.09691061  0.50237847  0.27452616    -0.19600
C293        C  0.14898325  0.04331608  0.27017411    -0.06100
C294        C  0.18493176  0.04664953  0.28666204     0.14800
C295        C  0.23764981  0.09425209  0.28918835    -0.22900
H296        H  0.19768159  0.50624626  0.30905164     0.16100
H297        H  0.07001636  0.99383295  0.25897653     0.16100
C298        C  0.02843005  0.42914028  0.30559997    -0.22900
H299        H  0.26194305  0.09083051  0.30181566     0.06300
H300        H  0.23758133  0.12068578  0.30322631     0.09500
H301        H  0.25351300  0.10866832  0.26473862     0.09500
H302        H  0.02202002  0.40224268  0.32165100     0.09500
H303        H  0.00322974  0.41081539  0.28447383     0.09500
H304        H  0.01886874  0.44842462  0.31991794     0.06300
C305        C  0.10898236  0.16269593  0.28556635    -0.19500
C306        C  0.06445110  0.12809438  0.30317029    -0.06100
C307        C  0.04402015  0.07957310  0.30258436     0.14800
C308        C  0.06699878  0.06675806  0.28304701    -0.19600
C309        C  0.11201965  0.10117217  0.26576437    -0.06100
C310        C  0.13330002  0.15004298  0.26727280     0.14800
C311        C  0.18060055  0.18946659  0.24887933    -0.22900
H312        H  0.12483919  0.19996101  0.28591193     0.16100
H313        H  0.04764765  0.02884896  0.28063784     0.16100
C314        C  0.99641696  0.04016518  0.32088198    -0.22900
H315        H  0.20881805  0.21869475  0.26620232     0.06300
H316        H  0.17236133  0.20495550  0.23111561     0.09500
H317        H  0.19746280  0.17642153  0.23543969     0.09500
H318        H  0.98355451  0.00380159  0.31489620     0.09500
H319        H  0.96602062  0.03959968  0.31496453     0.09500
H320        H  0.00284962  0.04560659  0.34736976     0.06300
N321        N  0.16207724  0.07887108  0.74525848    -0.02700
C322        C  0.12873568  0.08463230  0.73975263    -0.00100
C323        C  0.10959780  0.06824088  0.70909312    -0.23000
C324        C  0.13426893  0.05507695  0.69440057    -0.23200
C325        C  0.17119619  0.06866892  0.71497213    -0.00200
H326        H  0.08223777  0.06777377  0.69835522     0.13600
H327        H  0.13191150  0.04416262  0.66933052     0.13600
N328        N  0.03634399  0.17742709  0.80807283    -0.02700
C329        C  0.03858730  0.14450436  0.81898336    -0.00100
C330        C  0.02195071  0.13308763  0.85079801    -0.23000
C331        C  0.01090398  0.16088908  0.86059122    -0.23200
C332        C  0.02714640  0.19281430  0.83586427    -0.00200
H333        H  0.02367553  0.11189188  0.86674794     0.13600
H334        H  0.00488519  0.16584721  0.88586106     0.13600
N335        N  0.38349585  0.10349914  0.72275791    -0.02700
C336        C  0.36650021  0.12467941  0.71160638    -0.00100
C337        C  0.32429040  0.10861774  0.72927945    -0.23000
C338        C  0.31074686  0.07274408  0.74883113    -0.23200
C339        C  0.34690298  0.06991537  0.74409480    -0.00200
H340        H  0.30118533  0.11659515  0.72413365     0.13600
H341        H  0.27697368  0.04943656  0.76355184     0.13600
N342        N  0.43716316  0.35287158  0.69202017    -0.02700
C343        C  0.43034257  0.38496533  0.69340541    -0.00100
C344        C  0.40047916  0.37518345  0.66804647    -0.23000
C345        C  0.38507195  0.33345541  0.65269476    -0.23200
C346        C  0.40713631  0.31970407  0.66840228    -0.00200
H347        H  0.38372306  0.39070693  0.66500055     0.13600
H348        H  0.35630729  0.31247715  0.63453690     0.13600
N349        N  0.32903648  0.42183605  0.80782225    -0.02700
C350        C  0.36970577  0.42628962  0.81005679    -0.00100
C351        C  0.37129449  0.41311119  0.84045381    -0.23000
C352        C  0.32800917  0.39586447  0.85635163    -0.23200
C353        C  0.30277402  0.40142737  0.83581094    -0.00200
H354        H  0.39703777  0.40928418  0.84821525     0.13600
H355        H  0.31493603  0.37824483  0.87947519     0.13600
N356        N  0.10746557  0.41392154  0.80025896    -0.02700
C357        C  0.13703378  0.40725253  0.81301924    -0.00100
C358        C  0.14021248  0.37910060  0.79164509    -0.23000
C359        C  0.10952247  0.36521390  0.76618507    -0.23200
C360        C  0.08860673  0.38539743  0.77252797    -0.00200
H361        H  0.15711206  0.36413201  0.79643532     0.13600
H362        H  0.10097513  0.34061428  0.74625857     0.13600
Fe363      Fe  0.08897300  0.32302969  0.89950136     1.65800
Fe364      Fe  0.15711620  0.29361595  0.88091135     1.73200
Fe365      Fe  0.21460575  0.41219312  0.89010875     1.54400
O366        O  0.17777664  0.42791344  0.86361997    -0.80900
O367        O  0.20423783  0.31862897  0.91831367    -0.79200
O368        O  0.09789431  0.35794905  0.85843108    -0.83400
O369        O  0.11692365  0.38435389  0.92850287    -0.78300
O370        O  0.24100265  0.40701173  0.84637282    -0.80000
O371        O  0.09639643  0.24504367  0.91267844    -0.82800
C372        C  0.15504401  0.40828696  0.94643323     0.98000
C373        C  0.13682328  0.39903551  0.84780280     1.05400
O374        O  0.15441523  0.34372952  0.88976668    -1.11800
O375        O  0.11010179  0.26747975  0.84210253    -0.74200
O376        O  0.05062506  0.25797268  0.87131471    -0.77700
O377        O  0.19643664  0.42281779  0.93547845    -0.78400
C378        C  0.06413507  0.24367777  0.84851306     0.96900
O379        O  0.08405062  0.28890066  0.94086682    -0.76300
O380        O  0.22072243  0.33621719  0.85158115    -0.81500
C381        C  0.24396354  0.36143166  0.92552436     0.99500
C382        C  0.25103612  0.38001226  0.84280040     1.05400
O383        O  0.25456659  0.39949395  0.91518749    -0.77200
C384        C  0.08788801  0.25687153  0.93974884     1.03700
N385        N  0.36285051  0.09149835  0.52604632    -0.02700
C386        C  0.33746493  0.10290548  0.54247937    -0.00100
C387        C  0.29605266  0.08579801  0.52482237    -0.23000
C388        C  0.29322005  0.06023515  0.49847722    -0.23200
C389        C  0.33342136  0.06304369  0.50018363    -0.00200
H390        H  0.26665071  0.08566569  0.53282626     0.13600
H391        H  0.26136399  0.03628901  0.48270829     0.13600
N392        N  0.32039212  0.40519149  0.96005176    -0.02700
C393        C  0.34704187  0.39373004  0.96994538    -0.00100
C394        C  0.32276326  0.34600740  0.96045841    -0.23000
C395        C  0.28088819  0.32823507  0.94429890    -0.23200
C396        C  0.28048603  0.36527519  0.94414637    -0.00200
H397        H  0.33427880  0.32591951  0.96423362     0.13600
H398        H  0.25448560  0.29257608  0.93289527     0.13600
N399        N  0.38271224  0.29189659  0.53994875    -0.03500
C400        C  0.36814880  0.31224255  0.52461777    -0.00100
C401        C  0.31697935  0.28396439  0.52879099    -0.23000
C402        C  0.30026617  0.24592865  0.54772274    -0.23200
C403        C  0.34159748  0.25182706  0.55463908    -0.00200
H404        H  0.29505922  0.29277412  0.52172680     0.13600
H405        H  0.26292859  0.21967762  0.55808211     0.13600
N406        N  0.11272506  0.40868857  0.99546008    -0.02700
C407        C  0.14829905  0.40883531  0.98202471    -0.00100
C408        C  0.14475290  0.37320968  0.99610802    -0.23000
C409        C  0.10097467  0.34492277  0.01377750    -0.23200
C410        C  0.08124446  0.36624820  0.01153787    -0.00200
H411        H  0.16428042  0.36135435  0.98772932     0.13600
H412        H  0.08335064  0.31046303  0.02426956     0.13600
N413        N  0.13168591  0.05886345  0.56557090    -0.02700
C414        C  0.08981351  0.05319887  0.56369747    -0.00100
C415        C  0.06703458  0.04213746  0.59402575    -0.23000
C416        C  0.10338602  0.05789679  0.61561460    -0.23200
C417        C  0.14329247  0.06908332  0.59760601    -0.00200
H418        H  0.03415272  0.03723418  0.60020749     0.13600
H419        H  0.10227306  0.06614408  0.64081102     0.13600
N420        N  0.06529603  0.19485000  0.98045404    -0.02700
C421        C  0.09847118  0.19222009  0.99281588    -0.00100
C422        C  0.14630162  0.23677288  0.99276631    -0.23000
C423        C  0.14376285  0.26793199  0.97920684    -0.23200
C424        C  0.09494068  0.24157150  0.96994417    -0.00200
H425        H  0.17950983  0.24574953  0.00212514     0.13600
H426        H  0.17533975  0.30549289  0.97457499     0.13600
Fe427      Fe  0.26734034  0.08462536  0.63746453     1.65800
Fe428      Fe  0.28213189  0.18420338  0.64964535     1.73200
Fe429      Fe  0.38097256  0.19499342  0.62339679     1.54400
O430        O  0.39176271  0.17440787  0.66581747    -0.80900
O431        O  0.31608921  0.22519200  0.60785416    -0.79200
O432        O  0.32519820  0.09454161  0.66115767    -0.83400
O433        O  0.29211930  0.08534107  0.59131258    -0.78300
O434        O  0.40565540  0.25933814  0.64519501    -0.80000
O435        O  0.21748314  0.13623632  0.62310207    -0.82800
C436        C  0.33521528  0.10978808  0.57840248     0.98000
C437        C  0.36349352  0.13147839  0.67676654     1.05400
O438        O  0.30939222  0.15432368  0.63717646    -1.11800
O439        O  0.24236171  0.14203699  0.69087035    -0.74200
O440        O  0.23193887  0.07539390  0.68230655    -0.77700
O441        O  0.37335284  0.14159671  0.59515841    -0.78400
C442        C  0.22071870  0.09831534  0.69729828     0.96900
O443        O  0.20794466  0.07059286  0.61396625    -0.76300
O444        O  0.34335838  0.23623737  0.67802007    -0.81500
C445        C  0.34194811  0.22942502  0.58321646     0.99500
C446        C  0.38620386  0.26935673  0.66568201     1.05400
O447        O  0.36678594  0.21563462  0.58283063    -0.77200
C448        C  0.19302830  0.09355077  0.61159618     1.03700
C449        C  0.08743597  0.08364623  0.51111573    -0.19500
C450        C  0.09074521  0.08811399  0.54514370    -0.06100
C451        C  0.09566977  0.12679212  0.56079577     0.14800
C452        C  0.09108919  0.15470141  0.54259630    -0.19600
C453        C  0.08785271  0.15153705  0.00968049    -0.06100
C454        C  0.08956831  0.11765431  0.99363794     0.14800
C455        C  0.09655060  0.11657289  0.95732607    -0.22900
H456        H  0.08408522  0.05517559  0.49857358     0.16100
H457        H  0.09370940  0.18314923  0.55461466     0.16100
C458        C  0.11047250  0.14315826  0.59590488    -0.22900
H459        H  0.13130149  0.12306685  0.95193846     0.06300
H460        H  0.09991029  0.14463232  0.94491639     0.09500
H461        H  0.06431945  0.08042795  0.94702052     0.09500
H462        H  0.14442609  0.14903807  0.60092173     0.09500
H463        H  0.07935284  0.11708494  0.61286835     0.09500
H464        H  0.12022646  0.17831408  0.60145590     0.06300
C465        C  0.12878054  0.45719337  0.54631314    -0.19500
C466        C  0.12493238  0.45301152  0.51231968    -0.06100
C467        C  0.13346625  0.48884852  0.99548550     0.14800
C468        C  0.13935742  0.02594223  0.51387673    -0.19600
C469        C  0.13338353  0.02445485  0.54810195    -0.06100
C470        C  0.12511262  0.48778450  0.56449967     0.14800
C471        C  0.10374295  0.47213273  0.59879207    -0.22900
H472        H  0.12764032  0.43141414  0.55892366     0.16100
H473        H  0.14615535  0.05649432  0.00149543     0.16100
C474        C  0.13316436  0.48813350  0.95900075    -0.22900
H475        H  0.09425051  0.43790477  0.60491154     0.06300
H476        H  0.06654886  0.96266069  0.59959095     0.09500
H477        H  0.12692411  0.99503106  0.61738112     0.09500
H478        H  0.09714732  0.45362022  0.95004921     0.09500
H479        H  0.16455820  0.49133881  0.94889889     0.09500
H480        H  0.13420602  0.01841605  0.95024010     0.06300
C481        C  0.43903280  0.28899073  0.50737553    -0.19500
C482        C  0.43025639  0.30520042  0.53559714    -0.06100
C483        C  0.46901900  0.33742365  0.55735819     0.14800
C484        C  0.01590496  0.35462288  0.55126400    -0.19600
C485        C  0.02653534  0.34325541  0.52128789    -0.06100
C486        C  0.48774684  0.31001964  0.99790157     0.14800
C487        C  0.49594831  0.29586234  0.96526081    -0.22900
H488        H  0.40820150  0.26302458  0.49125329     0.16100
H489        H  0.04482633  0.37749217  0.56877228     0.16100
C490        C  0.45987059  0.35467447  0.58777985    -0.22900
H491        H  0.46043228  0.26949327  0.95182529     0.06300
H492        H  0.51171912  0.27872454  0.96866913     0.09500
H493        H  0.52211037  0.32847840  0.95028728     0.09500
H494        H  0.43062273  0.32301048  0.60253697     0.09500
H495        H  0.44721557  0.37396532  0.58161800     0.09500
H496        H  0.99309052  0.38125710  0.60295310     0.06300
C497        C  0.42766929  0.41875986  0.97358219    -0.19500
C498        C  0.39600313  0.42580558  0.98693246    -0.06100
C499        C  0.39470449  0.42546145  0.51773330     0.14800
C500        C  0.39399594  0.39229261  0.53364479    -0.19600
C501        C  0.40105040  0.36389049  0.51540487    -0.06100
C502        C  0.42408690  0.38035386  0.48412608     0.14800
C503        C  0.44343908  0.36208305  0.96732643    -0.22900
H504        H  0.43971983  0.42801936  0.94841340     0.16100
H505        H  0.38263358  0.38495370  0.55905388     0.16100
C506        C  0.39236859  0.45935854  0.53704837    -0.22900
H507        H  0.45696272  0.37803100  0.94283436     0.06300
H508        H  0.41234548  0.32246059  0.96383906     0.09500
H509        H  0.47552450  0.37063827  0.97953712     0.09500
H510        H  0.35829127  0.43859676  0.55273960     0.09500
H511        H  0.39283786  0.48277699  0.52090365     0.09500
H512        H  0.42557251  0.48317744  0.55286836     0.06300
C513        C  0.43316334  0.09409717  0.51481176    -0.19500
C514        C  0.41684700  0.11910324  0.52390620    -0.06100
C515        C  0.45230140  0.17021384  0.52054539     0.14800
C516        C  0.49965478  0.19342599  0.00620877    -0.19600
C517        C  0.01397303  0.16755630  0.99285067    -0.06100
C518        C  0.97964468  0.11658718  0.49625933     0.14800
C519        C  0.98441620  0.08381101  0.47767425    -0.22900
H520        H  0.40759782  0.05534800  0.51768010     0.16100
H521        H  0.02524336  0.23176287  0.00318063     0.16100
C522        C  0.44011182  0.20123973  0.52984527    -0.22900
H523        H  0.44950328  0.05688876  0.46379981     0.06300
H524        H  0.98821204  0.06406022  0.49469363     0.09500
H525        H  0.01572443  0.10536357  0.95921101     0.09500
H526        H  0.43094597  0.19863252  0.55597338     0.09500
H527        H  0.40893754  0.19090694  0.51506104     0.09500
H528        H  0.47298161  0.23988487  0.52621134     0.06300
C529        C  0.30257882  0.48112663  0.50589207    -0.19500
C530        C  0.32868163  0.02216625  0.48746352    -0.06100
C531        C  0.35276684  0.02360832  0.95763432     0.14800
C532        C  0.35086170  0.48587215  0.95042555    -0.19600
C533        C  0.32519182  0.44566917  0.97043763    -0.06100
C534        C  0.30003297  0.44255746  0.49712674     0.14800
C535        C  0.26860345  0.39854991  0.51813755    -0.22900
H536        H  0.28374154  0.47930851  0.52802456     0.16100
H537        H  0.36896316  0.48662699  0.92828904     0.16100
C538        C  0.37818773  0.06587630  0.93559817    -0.22900
H539        H  0.28010731  0.40951542  0.54384392     0.06300
H540        H  0.22879501  0.38104627  0.51699813     0.09500
H541        H  0.27155237  0.37123871  0.51075215     0.09500
H542        H  0.40887349  0.10009869  0.94860027     0.09500
H543        H  0.35055241  0.06826774  0.92781913     0.09500
H544        H  0.39440310  0.06197146  0.91349039     0.06300
C545        C  0.39031996  0.36345312  0.74683049    -0.19500
C546        C  0.42330469  0.40049232  0.72495783    -0.06100
C547        C  0.43964005  0.44695358  0.73119726     0.14800
C548        C  0.42276686  0.45532466  0.75964006    -0.19600
C549        C  0.38977438  0.41797481  0.78151405    -0.06100
C550        C  0.37271525  0.37112609  0.77468063     0.14800
C551        C  0.33327649  0.32782289  0.79521171    -0.22900
H552        H  0.37549495  0.32711762  0.74096725     0.16100
H553        H  0.43421284  0.49053686  0.76436110     0.16100
C554        C  0.47422135  0.48715028  0.70781898    -0.22900
H555        H  0.32124998  0.29351880  0.78409944     0.06300
H556        H  0.29952970  0.32366193  0.79785501     0.09500
H557        H  0.34811635  0.33199626  0.81947362     0.09500
H558        H  0.45534289  0.47819983  0.68433550     0.09500
H559        H  0.50796934  0.49176727  0.70361044     0.09500
H560        H  0.48634665  0.52208474  0.71751940     0.06300
C561        C  0.45908061  0.32758513  0.73622641    -0.19500
C562        C  0.47402494  0.35798651  0.71031337    -0.06100
C563        C  0.52575155  0.39621107  0.70395336     0.14800
C564        C  0.06170498  0.40140169  0.72488910    -0.19600
C565        C  0.04816633  0.37365512  0.75223884    -0.06100
C566        C  0.49460184  0.33576525  0.75680520     0.14800
C567        C  0.47614734  0.30308537  0.78509405    -0.22900
H568        H  0.41946602  0.29818810  0.74084699     0.16100
H569        H  0.10109842  0.43086411  0.71939758     0.16100
C570        C  0.54341469  0.42856187  0.67558760    -0.22900
H571        H  0.43466557  0.27704572  0.78748706     0.06300
H572        H  0.49188657  0.32432690  0.80820720     0.09500
H573        H  0.48740270  0.28183919  0.78129716     0.09500
H574        H  0.53088559  0.44910189  0.67856182     0.09500
H575        H  0.52799592  0.40613047  0.65293009     0.09500
H576        H  0.08298786  0.45073398  0.67338255     0.06300
C577        C  0.32112173  0.48580614  0.74412475    -0.19500
C578        C  0.34363209  0.03285511  0.75999795    -0.06100
C579        C  0.35876906  0.03922205  0.79236300     0.14800
C580        C  0.35260473  0.50089223  0.80793621    -0.19600
C581        C  0.33168193  0.45698909  0.79147707    -0.06100
C582        C  0.31541779  0.44909578  0.75936585     0.14800
C583        C  0.29147614  0.40179369  0.74160934    -0.22900
H584        H  0.30847262  0.48000067  0.71943567     0.16100
H585        H  0.36471484  0.50636521  0.83273907     0.16100
C586        C  0.38015295  0.08455480  0.81212938    -0.22900
H587        H  0.27956993  0.40096360  0.71693213     0.06300
H588        H  0.25794688  0.37151905  0.75549081     0.09500
H589        H  0.31831774  0.39615966  0.73886777     0.09500
H590        H  0.35248445  0.08922850  0.81420214     0.09500
H591        H  0.41474393  0.11653611  0.80041272     0.09500
H592        H  0.38961951  0.08311631  0.83708827     0.06300
C593        C  0.46272302  0.17711793  0.74695376    -0.19500
C594        C  0.43533759  0.13090115  0.73188536    -0.06100
C595        C  0.45435892  0.10769633  0.73426325     0.14800
C596        C  0.49093292  0.12441179  0.75754517    -0.19600
C597        C  0.01149674  0.16873301  0.77722229    -0.06100
C598        C  0.99755034  0.19539000  0.76920960     0.14800
C599        C  0.02356732  0.24511467  0.78315701    -0.22900
H600        H  0.45110449  0.19740138  0.74400616     0.16100
H601        H  0.49965510  0.10205925  0.76107786     0.16100
C602        C  0.43509479  0.06410899  0.71321139    -0.22900
H603        H  0.02252030  0.26621626  0.76560137     0.06300
H604        H  0.06367230  0.26501296  0.78706964     0.09500
H605        H  0.00466358  0.24279551  0.80612851     0.09500
H606        H  0.40618664  0.05430666  0.69621500     0.09500
H607        H  0.41890845  0.03270435  0.72857888     0.09500
H608        H  0.46658035  0.07219827  0.69847379     0.06300
C609        C  0.17111341  0.50421441  0.80013042    -0.19500
C610        C  0.12026530  0.46052355  0.80116112    -0.06100
C611        C  0.08420461  0.46292179  0.79309816     0.14800
C612        C  0.09881231  0.50041970  0.77366778    -0.19600
C613        C  0.14811301  0.04485630  0.77024037    -0.06100
C614        C  0.18406341  0.04812526  0.78665455     0.14800
C615        C  0.23706653  0.09540056  0.78837064    -0.22900
H616        H  0.19987462  0.50467283  0.80816096     0.16100
H617        H  0.06885076  0.99583392  0.76020160     0.16100
C618        C  0.03027877  0.42571761  0.80371104    -0.22900
H619        H  0.26131121  0.09206292  0.80115250     0.06300
H620        H  0.23783024  0.12268486  0.80186537     0.09500
H621        H  0.25231950  0.10862831  0.76365195     0.09500
H622        H  0.02350287  0.39714887  0.81808767     0.09500
H623        H  0.00542715  0.40926800  0.78240445     0.09500
H624        H  0.02046109  0.44379267  0.81941494     0.06300
C625        C  0.11029028  0.16394879  0.78606396    -0.19500
C626        C  0.06358760  0.12906355  0.80146633    -0.06100
C627        C  0.04039103  0.07976186  0.79866563     0.14800
C628        C  0.06241061  0.06647714  0.77851306    -0.19600
C629        C  0.10992957  0.10108092  0.76390526    -0.06100
C630        C  0.13418089  0.15069858  0.76788575     0.14800
C631        C  0.18415229  0.19039810  0.75206617    -0.22900
H632        H  0.12828059  0.20185411  0.78820271     0.16100
H633        H  0.04067009  0.02843187  0.77348799     0.16100
C634        C  0.99108575  0.04038845  0.81540039    -0.22900
H635        H  0.21124265  0.21664007  0.77102909     0.06300
H636        H  0.17994499  0.20973357  0.73490993     0.09500
H637        H  0.20021389  0.17671330  0.73837878     0.09500
H638        H  0.97767908  0.00394328  0.80907477     0.09500
H639        H  0.96220865  0.04158933  0.80860421     0.09500
H640        H  0.99538092  0.04425642  0.84208331     0.06300
N641        N  0.16167694  0.57862435  0.24517710    -0.02700
C642        C  0.12836529  0.58437659  0.23955601    -0.00100
C643        C  0.10921156  0.56780590  0.20891081    -0.23000
C644        C  0.13395163  0.55465418  0.19431638    -0.23200
C645        C  0.17087703  0.56836456  0.21494410    -0.00200
H646        H  0.08181945  0.56724089  0.19811149     0.13600
H647        H  0.13164752  0.54368822  0.16926420     0.13600
N648        N  0.03653651  0.67773048  0.30802477    -0.02700
C649        C  0.03873789  0.64474464  0.31885656    -0.00100
C650        C  0.02208455  0.63322271  0.35065748    -0.23000
C651        C  0.01101708  0.66098455  0.36052469    -0.23200
C652        C  0.02725497  0.69298900  0.33585464    -0.00200
H653        H  0.02375517  0.61191828  0.36653085     0.13600
H654        H  0.00495201  0.66583954  0.38580972     0.13600
N655        N  0.38323380  0.60327560  0.22284557    -0.02700
C656        C  0.36629611  0.62450988  0.21172586    -0.00100
C657        C  0.32422946  0.60867519  0.22947382    -0.23000
C658        C  0.31073175  0.57291388  0.24912396    -0.23200
C659        C  0.34675586  0.56991367  0.24431804    -0.00200
H660        H  0.30118340  0.61673397  0.22434275     0.13600
H661        H  0.27705201  0.54975946  0.26394467     0.13600
N662        N  0.43647717  0.85242521  0.19219893    -0.02700
C663        C  0.42960116  0.88446576  0.19344885    -0.00100
C664        C  0.39992166  0.87470194  0.16797053    -0.23000
C665        C  0.38477547  0.83308662  0.15260433    -0.23200
C666        C  0.40678196  0.81937976  0.16845436    -0.00200
H667        H  0.38312531  0.89016185  0.16481216     0.13600
H668        H  0.35618376  0.81213042  0.13433768     0.13600
N669        N  0.32858493  0.92176763  0.30779718    -0.02700
C670        C  0.36928291  0.92627625  0.30995416    -0.00100
C671        C  0.37116245  0.91336592  0.34037153    -0.23000
C672        C  0.32799338  0.89620928  0.35638808    -0.23200
C673        C  0.30256973  0.90157544  0.33587857    -0.00200
H674        H  0.39698752  0.90961577  0.34807784     0.13600
H675        H  0.31509983  0.87873255  0.37955618     0.13600
N676        N  0.10730128  0.91408535  0.30040427    -0.02700
C677        C  0.13697306  0.90756323  0.31323704    -0.00100
C678        C  0.14056570  0.87974508  0.29180928    -0.23000
C679        C  0.11001287  0.86586102  0.26626040    -0.23200
C680        C  0.08875398  0.88571144  0.27259378    -0.00200
H681        H  0.15767125  0.86497666  0.29659402     0.13600
H682        H  0.10178716  0.84147316  0.24626586     0.13600
Fe683      Fe  0.08888455  0.82301851  0.39967788     1.65800
Fe684      Fe  0.15704957  0.79364040  0.38107122     1.73200
Fe685      Fe  0.21448774  0.91219596  0.39026538     1.54400
O686        O  0.17762654  0.92799373  0.36387160    -0.80900
O687        O  0.20412212  0.81859327  0.41849745    -0.79200
O688        O  0.09777686  0.85803492  0.35861611    -0.83400
O689        O  0.11687019  0.88431803  0.42873541    -0.78300
O690        O  0.24066834  0.90693435  0.34647153    -0.80000
O691        O  0.09626935  0.74496772  0.41276627    -0.82800
C692        C  0.15502412  0.90827582  0.44664311     0.98000
C693        C  0.13668488  0.89918180  0.34803012     1.05400
O694        O  0.15431955  0.84373765  0.38994552    -1.11800
O695        O  0.11014936  0.76763282  0.34222552    -0.74200
O696        O  0.05059177  0.75801896  0.37141063    -0.77700
O697        O  0.19642010  0.92283698  0.43566392    -0.78400
C698        C  0.06417068  0.74380755  0.34858904     0.96900
O699        O  0.08396222  0.78878721  0.44103592    -0.76300
O700        O  0.22067644  0.83629870  0.35179821    -0.81500
C701        C  0.24395293  0.86139434  0.42558315     0.99500
C702        C  0.25083442  0.88004337  0.34293297     1.05400
O703        O  0.25452667  0.89944820  0.41523872    -0.77200
C704        C  0.08779689  0.75674646  0.43987173     1.03700
N705        N  0.36318275  0.59167143  0.02635959    -0.02700
C706        C  0.33791555  0.60324818  0.04272228    -0.00100
C707        C  0.29683619  0.58664444  0.02489371    -0.23000
C708        C  0.29405235  0.56119229  0.99848771    -0.23200
C709        C  0.33396196  0.56357565  0.00034597    -0.00200
H710        H  0.26755706  0.58673442  0.03280634     0.13600
H711        H  0.26234905  0.53756043  0.98256390     0.13600
N712        N  0.32064005  0.90513353  0.45985679    -0.02700
C713        C  0.34746652  0.89373854  0.46949562    -0.00100
C714        C  0.32319959  0.84605298  0.45990714    -0.23000
C715        C  0.28116902  0.82825341  0.44392594    -0.23200
C716        C  0.28064842  0.86523349  0.44399713    -0.00200
H717        H  0.33479929  0.82600193  0.46356052     0.13600
H718        H  0.25472371  0.79261457  0.43250189     0.13600
N719        N  0.38263389  0.79127336  0.03975201    -0.03500
C720        C  0.36806923  0.81150158  0.02424617    -0.00100
C721        C  0.31694037  0.78337626  0.02851517    -0.23000
C722        C  0.30025203  0.74557261  0.04770316    -0.23200
C723        C  0.34155790  0.75145062  0.05465810    -0.00200
H724        H  0.29505051  0.79215227  0.02129604     0.13600
H725        H  0.26295345  0.71947575  0.05815043     0.13600
N726        N  0.11270745  0.90859770  0.49568765    -0.02700
C727        C  0.14830784  0.90879657  0.48223557    -0.00100
C728        C  0.14476860  0.87314147  0.49627207    -0.23000
C729        C  0.10098341  0.84481727  0.51393829    -0.23200
C730        C  0.08127881  0.86617803  0.51177087    -0.00200
H731        H  0.16433723  0.86132749  0.48788595     0.13600
H732        H  0.08335902  0.81033645  0.52440114     0.13600
N733        N  0.13182140  0.55887066  0.06548217    -0.02700
C734        C  0.08986971  0.55305635  0.06357373    -0.00100
C735        C  0.06697701  0.54183816  0.09386774    -0.23000
C736        C  0.10328536  0.55761484  0.11550043    -0.23200
C737        C  0.14331008  0.56899606  0.09753483    -0.00200
H738        H  0.03398612  0.53675632  0.10001365     0.13600
H739        H  0.10202785  0.56568379  0.14071431     0.13600
N740        N  0.06518480  0.69465383  0.48058166    -0.02700
C741        C  0.09827766  0.69190975  0.49295307    -0.00100
C742        C  0.14616467  0.73639643  0.49282224    -0.23000
C743        C  0.14372207  0.76762045  0.47924516    -0.23200
C744        C  0.09490090  0.74136807  0.47002740    -0.00200
H745        H  0.17933391  0.74531104  0.50219168     0.13600
H746        H  0.17533013  0.80517969  0.47465576     0.13600
Fe747      Fe  0.26722071  0.58443895  0.13754277     1.65800
Fe748      Fe  0.28199989  0.68399480  0.14970848     1.73200
Fe749      Fe  0.38087588  0.69480419  0.12359058     1.54400
O750        O  0.39157692  0.67429585  0.16603819    -0.80900
O751        O  0.31607912  0.72498928  0.10791421    -0.79200
O752        O  0.32508400  0.59440333  0.16127344    -0.83400
O753        O  0.29211980  0.58526599  0.09140286    -0.78300
O754        O  0.40545771  0.75914303  0.14527619    -0.80000
O755        O  0.21743281  0.63609184  0.12310166    -0.82800
C756        C  0.33531308  0.60973278  0.07864744     0.98000
C757        C  0.36332391  0.63133990  0.17692189     1.05400
O758        O  0.30926460  0.65412284  0.13729579    -1.11800
O759        O  0.24209209  0.64177322  0.19089464    -0.74200
O760        O  0.23172741  0.57515527  0.18235618    -0.77700
O761        O  0.37330206  0.64132851  0.09556612    -0.78400
C762        C  0.22044110  0.59804476  0.19731226     0.96900
O763        O  0.20785451  0.57041792  0.11401367    -0.76300
O764        O  0.34316760  0.73593723  0.17813962    -0.81500
C765        C  0.34193358  0.72915736  0.08329248     0.99500
C766        C  0.38596836  0.76909850  0.16577271     1.05400
O767        O  0.36674500  0.71534250  0.08295301    -0.77200
C768        C  0.19298249  0.59340898  0.11159727     1.03700
C769        C  0.08747274  0.58343791  0.01099932    -0.19500
C770        C  0.09072121  0.58791008  0.04502623    -0.06100
C771        C  0.09558765  0.62655988  0.06066787     0.14800
C772        C  0.09119022  0.65456880  0.04242364    -0.19600
C773        C  0.08755729  0.65125904  0.50997211    -0.06100
C774        C  0.08920494  0.61725298  0.49407331     0.14800
C775        C  0.09632298  0.61605229  0.45779000    -0.22900
H776        H  0.08420859  0.55499658  0.99848442     0.16100
H777        H  0.09386736  0.68306345  0.05441352     0.16100
C778        C  0.11004879  0.64273494  0.09583953    -0.22900
H779        H  0.13107062  0.62249164  0.45253652     0.06300
H780        H  0.09978933  0.64409951  0.44526617     0.09500
H781        H  0.06411203  0.57988895  0.44749561     0.09500
H782        H  0.14400673  0.64868716  0.10099100     0.09500
H783        H  0.07879854  0.61650830  0.11267988     0.09500
H784        H  0.11963494  0.67780319  0.10143918     0.06300
C785        C  0.12874078  0.95694985  0.04608987    -0.19500
C786        C  0.12492680  0.95269563  0.01209957    -0.06100
C787        C  0.13275982  0.98840327  0.49561300     0.14800
C788        C  0.13998444  0.52631362  0.01380037    -0.19600
C789        C  0.13365212  0.52456728  0.04800207    -0.06100
C790        C  0.12503552  0.98756124  0.06420371     0.14800
C791        C  0.10350971  0.97188599  0.09846177    -0.22900
H792        H  0.12757298  0.93118521  0.05875230     0.16100
H793        H  0.14623852  0.55689119  0.50191516     0.16100
C794        C  0.13168742  0.98719756  0.45914234    -0.22900
H795        H  0.09403982  0.93768622  0.10463075     0.06300
H796        H  0.06648045  0.46255146  0.09935492     0.09500
H797        H  0.12678753  0.49487101  0.11724021     0.09500
H798        H  0.09555638  0.95248388  0.45051416     0.09500
H799        H  0.16299248  0.99045827  0.44875607     0.09500
H800        H  0.13430458  0.51896681  0.45060174     0.06300
C801        C  0.43905597  0.78812893  0.00756528    -0.19500
C802        C  0.43022265  0.80462970  0.03557905    -0.06100
C803        C  0.46899851  0.83725880  0.05723996     0.14800
C804        C  0.01584435  0.85438646  0.05107458    -0.19600
C805        C  0.02646817  0.84304648  0.02108121    -0.06100
C806        C  0.48806420  0.80980915  0.49843886     0.14800
C807        C  0.49624255  0.79542519  0.46589337    -0.22900
H808        H  0.40821856  0.76185931  0.99152817     0.16100
H809        H  0.04474680  0.87716068  0.06859806     0.16100
C810        C  0.45976421  0.85473030  0.08749536    -0.22900
H811        H  0.46072292  0.76897401  0.45247586     0.06300
H812        H  0.51199992  0.77830668  0.46944437     0.09500
H813        H  0.52239843  0.82793357  0.45082965     0.09500
H814        H  0.43066684  0.82320206  0.10241167     0.09500
H815        H  0.44687702  0.87374000  0.08111625     0.09500
H816        H  0.99305746  0.88097087  0.10282446     0.06300
C817        C  0.42798393  0.91846661  0.47330946    -0.19500
C818        C  0.39642627  0.92574053  0.48649725    -0.06100
C819        C  0.39552225  0.92516239  0.01650667     0.14800
C820        C  0.39425574  0.89180253  0.03266853    -0.19600
C821        C  0.40100555  0.86300209  0.01468298    -0.06100
C822        C  0.42411913  0.87908625  0.98338885     0.14800
C823        C  0.44409901  0.86202434  0.46766879    -0.22900
H824        H  0.43998728  0.92743994  0.44810842     0.16100
H825        H  0.38298544  0.88484407  0.05810636     0.16100
C826        C  0.39450036  0.96011033  0.03553930    -0.22900
H827        H  0.45782727  0.87787913  0.44316028     0.06300
H828        H  0.41309251  0.82238147  0.46421695     0.09500
H829        H  0.47611000  0.87072409  0.48011101     0.09500
H830        H  0.36068079  0.94025457  0.05143674     0.09500
H831        H  0.39544257  0.98363932  0.01917743     0.09500
H832        H  0.42799760  0.98374599  0.05112708     0.06300
C833        C  0.43332512  0.59402331  0.01516092    -0.19500
C834        C  0.41714285  0.61912373  0.02434675    -0.06100
C835        C  0.45274159  0.67026002  0.02115350     0.14800
C836        C  0.50047708  0.69379654  0.50650025    -0.19600
C837        C  0.01384338  0.66741009  0.49290275    -0.06100
C838        C  0.97988250  0.61656976  0.99610459     0.14800
C839        C  0.98453360  0.58372955  0.97748484    -0.22900
H840        H  0.40766340  0.55525121  0.01795402     0.16100
H841        H  0.02518569  0.73167713  0.50313543     0.16100
C842        C  0.44077208  0.70140935  0.03065320    -0.22900
H843        H  0.44937365  0.55671033  0.96406855     0.06300
H844        H  0.98835512  0.56396912  0.99447272     0.09500
H845        H  0.01566763  0.60518027  0.45936623     0.09500
H846        H  0.43145217  0.69854547  0.05676256     0.09500
H847        H  0.40978419  0.69142173  0.01583413     0.09500
H848        H  0.47380650  0.74006785  0.02725652     0.06300
C849        C  0.30306175  0.97998971  0.00607736    -0.19500
C850        C  0.32893867  0.52255587  0.98758578    -0.06100
C851        C  0.35268492  0.52434318  0.45746328     0.14800
C852        C  0.35083573  0.98570711  0.45027657    -0.19600
C853        C  0.32544237  0.94558310  0.47033412    -0.06100
C854        C  0.30064623  0.94156880  0.99699284     0.14800
C855        C  0.26934730  0.89733695  0.01779951    -0.22900
H856        H  0.28423444  0.97790540  0.02830325     0.16100
H857        H  0.36886454  0.98648868  0.42808840     0.16100
C858        C  0.37843601  0.56650498  0.43527965    -0.22900
H859        H  0.28101222  0.90801996  0.04349838     0.06300
H860        H  0.22951215  0.87984660  0.01682870     0.09500
H861        H  0.27226954  0.87009656  0.01007832     0.09500
H862        H  0.40914949  0.60075218  0.44824781     0.09500
H863        H  0.35099803  0.56903816  0.42727555     0.09500
H864        H  0.39467338  0.56234815  0.41331154     0.06300
C865        C  0.38965934  0.86315873  0.24688383    -0.19500
C866        C  0.42251313  0.90008764  0.22491013    -0.06100
C867        C  0.43866025  0.94649881  0.23095162     0.14800
C868        C  0.42180365  0.95496320  0.25933777    -0.19600
C869        C  0.38912314  0.91779328  0.28138623    -0.06100
C870        C  0.37209752  0.87093926  0.27469573     0.14800
C871        C  0.33267164  0.82772950  0.29530566    -0.22900
H872        H  0.37489501  0.82682127  0.24113089     0.16100
H873        H  0.43304192  0.99011040  0.26388641     0.16100
C874        C  0.47302576  0.98654593  0.20742836    -0.22900
H875        H  0.32063847  0.79338110  0.28428115     0.06300
H876        H  0.29892480  0.82357665  0.29789389     0.09500
H877        H  0.34750750  0.83200573  0.31959095     0.09500
H878        H  0.45404549  0.97731679  0.18395023     0.09500
H879        H  0.50689314  0.99135662  0.20325084     0.09500
H880        H  0.48497470  0.02147087  0.21697340     0.06300
C881        C  0.45849204  0.82739130  0.23654405    -0.19500
C882        C  0.47337205  0.85767682  0.21055443    -0.06100
C883        C  0.52507292  0.89589518  0.20413439     0.14800
C884        C  0.06211276  0.90178594  0.22480085    -0.19600
C885        C  0.04842498  0.87394869  0.25213188    -0.06100
C886        C  0.49408044  0.83567931  0.25711998     0.14800
C887        C  0.47576116  0.80316550  0.28550651    -0.22900
H888        H  0.41889294  0.79800560  0.24121777     0.16100
H889        H  0.10152568  0.93128218  0.21941333     0.16100
C890        C  0.54265031  0.92812649  0.17570148    -0.22900
H891        H  0.43425862  0.77676501  0.28775591     0.06300
H892        H  0.49113485  0.82453242  0.30859733     0.09500
H893        H  0.48757239  0.78235071  0.28201629     0.09500
H894        H  0.53011288  0.94866237  0.17864417     0.09500
H895        H  0.52718158  0.90561432  0.15307059     0.09500
H896        H  0.08369025  0.95141130  0.17339757     0.06300
C897        C  0.32120053  0.98607721  0.24409114    -0.19500
C898        C  0.34342489  0.53285333  0.26024351    -0.06100
C899        C  0.35885854  0.53938179  0.29253908     0.14800
C900        C  0.35239216  0.00090834  0.30795448    -0.19600
C901        C  0.33127005  0.95696118  0.29149289    -0.06100
C902        C  0.31509975  0.94916963  0.25936609     0.14800
C903        C  0.29069632  0.90172073  0.24166882    -0.22900
H904        H  0.30860171  0.98034934  0.21939545     0.16100
H905        H  0.36445899  0.00630781  0.33276076     0.16100
C906        C  0.38046665  0.58483401  0.31222663    -0.22900
H907        H  0.27899016  0.90103736  0.21695384     0.06300
H908        H  0.25696812  0.87166939  0.25554091     0.09500
H909        H  0.31714289  0.89558580  0.23902902     0.09500
H910        H  0.35274640  0.58942958  0.31453173     0.09500
H911        H  0.41482442  0.61676566  0.30030301     0.09500
H912        H  0.39037206  0.58361721  0.33709251     0.06300
C913        C  0.46274750  0.67699260  0.24662323    -0.19500
C914        C  0.43513262  0.63062172  0.23177938    -0.06100
C915        C  0.45398961  0.60729110  0.23429108     0.14800
C916        C  0.49055752  0.62405151  0.25759094    -0.19600
C917        C  0.01184251  0.66924713  0.27714990    -0.06100
C918        C  0.99800215  0.69601308  0.26920255     0.14800
C919        C  0.02418541  0.74576862  0.28315817    -0.22900
H920        H  0.45124178  0.69734944  0.24355064     0.16100
H921        H  0.49912428  0.60160912  0.26125265     0.16100
C922        C  0.43457261  0.56356360  0.21335054    -0.22900
H923        H  0.02324053  0.76694824  0.26561116     0.06300
H924        H  0.06426115  0.76553938  0.28707020     0.09500
H925        H  0.00532839  0.74352001  0.30613199     0.09500
H926        H  0.40569583  0.55378164  0.19633080     0.09500
H927        H  0.41829263  0.53220641  0.22879115     0.09500
H928        H  0.46599348  0.57147799  0.19864015     0.06300
C929        C  0.17078518  0.00438849  0.30019640    -0.19500
C930        C  0.11996819  0.96063222  0.30121988    -0.06100
C931        C  0.08384756  0.96289162  0.29299149     0.14800
C932        C  0.09842902  0.00032188  0.27349204    -0.19600
C933        C  0.14761269  0.54463822  0.27022001    -0.06100
C934        C  0.18349748  0.54784072  0.28665019     0.14800
C935        C  0.23650310  0.59510377  0.28839970    -0.22900
H936        H  0.19958623  0.00496032  0.30832378     0.16100
H937        H  0.06833803  0.49581211  0.26031671     0.16100
C938        C  0.02988603  0.92562616  0.30351354    -0.22900
H939        H  0.26068232  0.59177611  0.30128707     0.06300
H940        H  0.23724563  0.62242565  0.30180926     0.09500
H941        H  0.25183652  0.60827363  0.26368473     0.09500
H942        H  0.02310939  0.89710506  0.31795062     0.09500
H943        H  0.00512494  0.90913062  0.28216004     0.09500
H944        H  0.01994204  0.94366265  0.31912729     0.06300
C945        C  0.11047383  0.66398414  0.28610119    -0.19500
C946        C  0.06353349  0.62915130  0.30125375    -0.06100
C947        C  0.03992653  0.57975813  0.29817476     0.14800
C948        C  0.06176486  0.56634613  0.27794205    -0.19600
C949        C  0.10954546  0.60088100  0.26363628    -0.06100
C950        C  0.13422932  0.65057549  0.26793291     0.14800
C951        C  0.18455016  0.69022530  0.25247026    -0.22900
H952        H  0.12877886  0.70195882  0.28846693     0.16100
H953        H  0.03975348  0.52833713  0.27262918     0.16100
C954        C  0.99037993  0.54045815  0.31469313    -0.22900
H955        H  0.21144956  0.71605325  0.27164337     0.06300
H956        H  0.18093694  0.71006530  0.23537971     0.09500
H957        H  0.20048766  0.67641235  0.23879044     0.09500
H958        H  0.97685274  0.50398129  0.30834111     0.09500
H959        H  0.96176250  0.54194965  0.30775178     0.09500
H960        H  0.99436045  0.54413259  0.34139880     0.06300
N961        N  0.16348687  0.57803965  0.74588288    -0.02700
C962        C  0.13040299  0.58435122  0.74109186    -0.00100
C963        C  0.11065458  0.56828509  0.71054304    -0.23000
C964        C  0.13438877  0.55445632  0.69525640    -0.23200
C965        C  0.17171236  0.56777176  0.71530160    -0.00200
H966        H  0.08327447  0.56819452  0.70029219     0.13600
H967        H  0.13103281  0.54319068  0.67015305     0.13600
N968        N  0.03633374  0.67547772  0.80856238    -0.02700
C969        C  0.03934558  0.64344466  0.82017029    -0.00100
C970        C  0.02261183  0.63271222  0.85201986    -0.23000
C971        C  0.01080960  0.66017159  0.86101955    -0.23200
C972        C  0.02663215  0.69136080  0.83583396    -0.00200
H973        H  0.02466452  0.61232154  0.86854896     0.13600
H974        H  0.00445857  0.66551398  0.88610648     0.13600
N975        N  0.38144651  0.59969541  0.72234177    -0.02700
C976        C  0.36374557  0.62014018  0.71107900    -0.00100
C977        C  0.32120600  0.60344510  0.72858260    -0.23000
C978        C  0.30846076  0.56821913  0.74844775    -0.23200
C979        C  0.34518748  0.56614773  0.74387546    -0.00200
H980        H  0.29761720  0.61080028  0.72337491     0.13600
H981        H  0.27491313  0.54493105  0.76336576     0.13600
N982        N  0.43648116  0.85130764  0.69276671    -0.02700
C983        C  0.42850125  0.88248106  0.69291851    -0.00100
C984        C  0.39892222  0.87144034  0.66700919    -0.23000
C985        C  0.38488859  0.82989615  0.65245601    -0.23200
C986        C  0.40765217  0.81759489  0.66909494    -0.00200
H987        H  0.38130674  0.88592098  0.66309761     0.13600
H988        H  0.35656199  0.80819821  0.63413441     0.13600
N989        N  0.32572571  0.92154811  0.80592098    -0.02700
C990        C  0.36603731  0.92536437  0.80749565    -0.00100
C991        C  0.36914682  0.91346263  0.83792401    -0.23000
C992        C  0.32715179  0.89789346  0.85478682    -0.23200
C993        C  0.30120258  0.90301016  0.83462028    -0.00200
H994        H  0.39483222  0.90930641  0.84519603     0.13600
H995        H  0.31515258  0.88131136  0.87823530     0.13600
N996        N  0.10512833  0.91586461  0.80286781    -0.02700
C997        C  0.13564305  0.90999087  0.81517050    -0.00100
C998        C  0.14065408  0.88378638  0.79309709    -0.23000
C999        C  0.10933206  0.86920683  0.76797222    -0.23200
C1000       C  0.08636394  0.88718361  0.77518581    -0.00200
H1001       H  0.15926318  0.87033418  0.79718508     0.13600
H1002       H  0.10246353  0.84628543  0.74733732     0.13600
Fe1003     Fe  0.08731080  0.82165321  0.89977460     1.65800
Fe1004     Fe  0.15655882  0.79383928  0.87996043     1.73200
Fe1005     Fe  0.21278023  0.91203868  0.89102141     1.54400
O1006       O  0.17543149  0.92806779  0.86564623    -0.80900
O1007       O  0.20409724  0.81873241  0.91697226    -0.79200
O1008       O  0.09608633  0.85763493  0.85925443    -0.83400
O1009       O  0.11422425  0.88217661  0.92953562    -0.78300
O1010       O  0.23974110  0.90849140  0.84695099    -0.80000
O1011       O  0.09655861  0.74456250  0.91190144    -0.82800
C1012       C  0.15246984  0.90671174  0.94742114     0.98000
C1013       C  0.13474994  0.89965572  0.84954316     1.05400
O1014       O  0.15307929  0.84332339  0.88976044    -1.11800
O1015       O  0.10909417  0.76733226  0.84135884    -0.74200
O1016       O  0.04947368  0.75681391  0.87101588    -0.77700
O1017       O  0.19390751  0.92110665  0.93665875    -0.78400
C1018       C  0.06309800  0.74271743  0.84808761     0.96900
O1019       O  0.08313348  0.78717822  0.94075233    -0.76300
O1020       O  0.21953195  0.83737333  0.85034662    -0.81500
C1021       C  0.24364473  0.86142977  0.92447164     0.99500
C1022       C  0.24965589  0.88147429  0.84226515     1.05400
O1023       O  0.25360155  0.89957960  0.91510884    -0.77200
C1024       C  0.08802417  0.75587146  0.93921358     1.03700
N1025       N  0.36317387  0.59153841  0.52529670    -0.02700
C1026       C  0.33756609  0.60257420  0.54181260    -0.00100
C1027       C  0.29576682  0.58487389  0.52434336    -0.23000
C1028       C  0.29299996  0.55931013  0.49803859    -0.23200
C1029       C  0.33365460  0.56279853  0.49954943    -0.00200
H1030       H  0.26610749  0.58429635  0.53248303     0.13600
H1031       H  0.26098588  0.53494893  0.48244619     0.13600
N1032       N  0.32150864  0.90477661  0.95740725    -0.02700
C1033       C  0.34844628  0.89301612  0.96596074    -0.00100
C1034       C  0.32332382  0.84514518  0.95627704    -0.23000
C1035       C  0.28078629  0.82767559  0.94128591    -0.23200
C1036       C  0.28070381  0.86495418  0.94205664    -0.00200
H1037       H  0.33448481  0.82459309  0.95927554     0.13600
H1038       H  0.25365664  0.79200773  0.93003989     0.13600
N1039       N  0.38437484  0.79301793  0.54176557    -0.03500
C1040       C  0.36959485  0.81351811  0.52689730    -0.00100
C1041       C  0.31836466  0.78487595  0.53111926    -0.23000
C1042       C  0.30186739  0.74660336  0.54966325    -0.23200
C1043       C  0.34333695  0.75262512  0.55628141    -0.00200
H1044       H  0.29624012  0.79360155  0.52439847     0.13600
H1045       H  0.26455969  0.72006581  0.55999711     0.13600
N1046       N  0.11039585  0.90898035  0.99582472    -0.02700
C1047       C  0.14585782  0.90852358  0.98293807    -0.00100
C1048       C  0.14215916  0.87326057  0.99783078    -0.23000
C1049       C  0.09809694  0.84537829  0.01518439    -0.23200
C1050       C  0.07851567  0.86672799  0.01212499    -0.00200
H1051       H  0.16191479  0.86128657  0.99032743     0.13600
H1052       H  0.08026677  0.81117935  0.02619425     0.13600
N1053       N  0.13224102  0.56091709  0.56639302    -0.02700
C1054       C  0.09018538  0.55509887  0.56524512    -0.00100
C1055       C  0.06872324  0.54499078  0.59596223    -0.23000
C1056       C  0.10606553  0.56157737  0.61688089    -0.23200
C1057       C  0.14513285  0.57210436  0.59821915    -0.00200
H1058       H  0.03594533  0.54003039  0.60268756     0.13600
H1059       H  0.10617753  0.57058868  0.64209772     0.13600
N1060       N  0.06635837  0.69413991  0.97990445    -0.02700
C1061       C  0.09962276  0.69126236  0.99174397    -0.00100
C1062       C  0.14763191  0.73558721  0.99108339    -0.23000
C1063       C  0.14502040  0.76684736  0.97774405    -0.23200
C1064       C  0.09598661  0.74070951  0.96910426    -0.00200
H1065       H  0.18095355  0.74440912  0.00005024     0.13600
H1066       H  0.17647163  0.80448342  0.97321092     0.13600
Fe1067     Fe  0.26703839  0.58381413  0.63636150     1.65800
Fe1068     Fe  0.28407960  0.68401168  0.65120484     1.73200
Fe1069     Fe  0.38183646  0.69368030  0.62371466     1.54400
O1070       O  0.39125295  0.67119332  0.66571738    -0.80900
O1071       O  0.31797663  0.72526613  0.60940772    -0.79200
O1072       O  0.32333100  0.59171351  0.66045376    -0.83400
O1073       O  0.29255680  0.58538713  0.59052602    -0.78300
O1074       O  0.40749199  0.75806549  0.64611678    -0.80000
O1075       O  0.21883528  0.63724656  0.62510858    -0.82800
C1076       C  0.33558096  0.60950122  0.57770650     0.98000
C1077       C  0.36180636  0.62798184  0.67633077     1.05400
O1078       O  0.31021385  0.65353091  0.63735275    -1.11800
O1079       O  0.24456164  0.64146114  0.69232072    -0.74200
O1080       O  0.23008224  0.57320984  0.68072810    -0.77700
O1081       O  0.37377121  0.64068506  0.59458425    -0.78400
C1082       C  0.22087174  0.59682995  0.69723961     0.96900
O1083       O  0.20982094  0.57258794  0.61217754    -0.76300
O1084       O  0.34582657  0.73433834  0.67960100    -0.81500
C1085       C  0.34378520  0.72983812  0.58457012     0.99500
C1086       C  0.38819278  0.76779638  0.66697281     1.05400
O1087       O  0.36848200  0.71587318  0.58370315    -0.77200
C1088       C  0.19479943  0.59563747  0.61174887     1.03700
C1089       C  0.08617042  0.58423712  0.51262205    -0.19500
C1090       C  0.09015405  0.58933362  0.54660063    -0.06100
C1091       C  0.09520841  0.62820063  0.56204881     0.14800
C1092       C  0.09007594  0.65561554  0.54372914    -0.19600
C1093       C  0.08903909  0.65061226  0.00865692    -0.06100
C1094       C  0.09054450  0.61659572  0.99259715     0.14800
C1095       C  0.09709293  0.61527993  0.95625201    -0.22900
H1096       H  0.08267806  0.55561377  0.50023013     0.16100
H1097       H  0.09281677  0.68421017  0.55559847     0.16100
C1098       C  0.11087698  0.64541992  0.59696669    -0.22900
H1099       H  0.13176249  0.62169465  0.95066581     0.06300
H1100       H  0.10027214  0.64323900  0.94385190     0.09500
H1101       H  0.06469612  0.57908852  0.94610297     0.09500
H1102       H  0.14513106  0.65168927  0.60169055     0.09500
H1103       H  0.08027435  0.61967257  0.61431328     0.09500
H1104       H  0.12051138  0.68056634  0.60227136     0.06300
C1105       C  0.12895907  0.95554291  0.54607080    -0.19500
C1106       C  0.12636424  0.95188217  0.51201914    -0.06100
C1107       C  0.13136402  0.98929112  0.99574787     0.14800
C1108       C  0.13878760  0.52757288  0.51442431    -0.19600
C1109       C  0.13369654  0.52644427  0.54871875    -0.06100
C1110       C  0.12436380  0.98562836  0.56397631     0.14800
C1111       C  0.10177464  0.96936015  0.59794946    -0.22900
H1112       H  0.12799135  0.93000132  0.55883774     0.16100
H1113       H  0.14771553  0.55577018  0.00128012     0.16100
C1114       C  0.12961944  0.98778654  0.95929197    -0.22900
H1115       H  0.09238237  0.93521888  0.60412637     0.06300
H1116       H  0.06877848  0.46583173  0.60110573     0.09500
H1117       H  0.12957260  0.49792294  0.61792653     0.09500
H1118       H  0.09301269  0.95334801  0.95094702     0.09500
H1119       H  0.16022364  0.99011004  0.94861192     0.09500
H1120       H  0.13753290  0.51863894  0.94995416     0.06300
C1121       C  0.43960305  0.78959343  0.50804571    -0.19500
C1122       C  0.43163765  0.80589479  0.53664620    -0.06100
C1123       C  0.47092051  0.83774706  0.55812644     0.14800
C1124       C  0.01861242  0.85138470  0.55187877    -0.19600
C1125       C  0.02937973  0.84249845  0.52094105    -0.06100
C1126       C  0.48776617  0.80846007  0.99870492     0.14800
C1127       C  0.49661748  0.79317843  0.96685582    -0.22900
H1128       H  0.40836742  0.76381612  0.49214461     0.16100
H1129       H  0.04697941  0.87102096  0.57005838     0.16100
C1130       C  0.46267779  0.85512923  0.58887943    -0.22900
H1131       H  0.46135195  0.76609099  0.95330947     0.06300
H1132       H  0.51251550  0.77646728  0.97146242     0.09500
H1133       H  0.52285734  0.82517124  0.95138944     0.09500
H1134       H  0.43377140  0.82347795  0.60374582     0.09500
H1135       H  0.45007827  0.87464286  0.58322451     0.09500
H1136       H  0.99651030  0.87538460  0.60535599     0.06300
C1137       C  0.42793730  0.91546487  0.96913089    -0.19500
C1138       C  0.39790687  0.92461053  0.98234511    -0.06100
C1139       C  0.39316619  0.92522431  0.52065212     0.14800
C1140       C  0.39335862  0.89260626  0.53651918    -0.19600
C1141       C  0.40209102  0.86545802  0.51833035    -0.06100
C1142       C  0.42610192  0.88318214  0.48741673     0.14800
C1143       C  0.43793894  0.85445386  0.96317765    -0.22900
H1144       H  0.43940482  0.92355682  0.94378946     0.16100
H1145       H  0.38147715  0.88466737  0.56182123     0.16100
C1146       C  0.38971569  0.95829954  0.54004489    -0.22900
H1147       H  0.44917545  0.86800868  0.93799055     0.06300
H1148       H  0.40558305  0.81484996  0.96149650     0.09500
H1149       H  0.47063165  0.86267831  0.97406283     0.09500
H1150       H  0.35560625  0.93689442  0.55570345     0.09500
H1151       H  0.38952833  0.98135456  0.52397617     0.09500
H1152       H  0.42280916  0.98251346  0.55592048     0.06300
C1153       C  0.43374087  0.59456115  0.51417886    -0.19500
C1154       C  0.41718091  0.61934300  0.52325005    -0.06100
C1155       C  0.45244134  0.67046551  0.52003295     0.14800
C1156       C  0.50074174  0.69331692  0.00763000    -0.19600
C1157       C  0.01552928  0.66755950  0.99301375    -0.06100
C1158       C  0.97862068  0.61638082  0.49574909     0.14800
C1159       C  0.98390613  0.58420329  0.47680259    -0.22900
H1160       H  0.40836593  0.55583860  0.51711337     0.16100
H1161       H  0.02895211  0.73265023  0.00450644     0.16100
C1162       C  0.44013754  0.70133632  0.52961539    -0.22900
H1163       H  0.45050771  0.55719192  0.46362740     0.06300
H1164       H  0.98746019  0.56401832  0.49354406     0.09500
H1165       H  0.01593070  0.60408010  0.95974240     0.09500
H1166       H  0.43124487  0.69868553  0.55579540     0.09500
H1167       H  0.40877096  0.69093418  0.51503293     0.09500
H1168       H  0.47287438  0.74001904  0.52593531     0.06300
C1169       C  0.30126930  0.98094047  0.50656824    -0.19500
C1170       C  0.32946793  0.52229274  0.48677947    -0.06100
C1171       C  0.35258441  0.52441657  0.95855219     0.14800
C1172       C  0.35169669  0.98560166  0.94894406    -0.19600
C1173       C  0.32681242  0.94524267  0.96871702    -0.06100
C1174       C  0.29877687  0.94230776  0.49814950     0.14800
C1175       C  0.26740300  0.89856283  0.51939483    -0.22900
H1176       H  0.28220614  0.97923812  0.52852804     0.16100
H1177       H  0.36928333  0.98667943  0.92641032     0.16100
C1178       C  0.37956021  0.56687774  0.93648314    -0.22900
H1179       H  0.27907397  0.90984575  0.54504354     0.06300
H1180       H  0.22763252  0.88113244  0.51841721     0.09500
H1181       H  0.27017638  0.87109024  0.51216096     0.09500
H1182       H  0.41013752  0.60088016  0.94971609     0.09500
H1183       H  0.35282381  0.57003648  0.92794991     0.09500
H1184       H  0.39621324  0.56260951  0.91484275     0.06300
C1185       C  0.38565881  0.86095233  0.74529298    -0.19500
C1186       C  0.41984964  0.89797395  0.72368516    -0.06100
C1187       C  0.43573936  0.94435464  0.72904071     0.14800
C1188       C  0.41810378  0.95303828  0.75679810    -0.19600
C1189       C  0.38474595  0.91602324  0.77876879    -0.06100
C1190       C  0.36712602  0.86892401  0.77238101     0.14800
C1191       C  0.32634643  0.82586962  0.79262662    -0.22900
H1192       H  0.37088868  0.82454128  0.73981581     0.16100
H1193       H  0.42960808  0.98832905  0.76105650     0.16100
C1194       C  0.47066651  0.98408850  0.70542554    -0.22900
H1195       H  0.31416942  0.79133222  0.78188344     0.06300
H1196       H  0.29300639  0.82245343  0.79420638     0.09500
H1197       H  0.33983393  0.82977707  0.81734902     0.09500
H1198       H  0.45220770  0.97448813  0.68167311     0.09500
H1199       H  0.50452504  0.98874650  0.70191537     0.09500
H1200       H  0.48239540  0.01912476  0.71444857     0.06300
C1201       C  0.45848856  0.82902877  0.73906377    -0.19500
C1202       C  0.47338550  0.85782569  0.71211078    -0.06100
C1203       C  0.52510395  0.89574105  0.70552924     0.14800
C1204       C  0.06208523  0.90494510  0.72702878    -0.19600
C1205       C  0.04711916  0.87638961  0.75412553    -0.06100
C1206       C  0.49408120  0.83801598  0.76005698     0.14800
C1207       C  0.47583203  0.80665539  0.78917251    -0.22900
H1208       H  0.41888286  0.80002483  0.74397855     0.16100
H1209       H  0.10171911  0.93475936  0.72249551     0.16100
C1210       C  0.54270431  0.92619520  0.67607506    -0.22900
H1211       H  0.43429586  0.77929097  0.79085929     0.06300
H1212       H  0.48981565  0.82879102  0.81195570     0.09500
H1213       H  0.48929360  0.78714694  0.78745414     0.09500
H1214       H  0.52996279  0.94662038  0.67755094     0.09500
H1215       H  0.52742067  0.90231470  0.65406996     0.09500
H1216       H  0.08605575  0.95567745  0.67589301     0.06300
C1217       C  0.31975540  0.98821968  0.74349286    -0.19500
C1218       C  0.34300036  0.53012057  0.76041741    -0.06100
C1219       C  0.35747013  0.53716730  0.79304113     0.14800
C1220       C  0.35251831  0.00191295  0.80672907    -0.19600
C1221       C  0.32939014  0.95761277  0.79012471    -0.06100
C1222       C  0.31232474  0.95033417  0.75835073     0.14800
C1223       C  0.28563024  0.90245233  0.74064477    -0.22900
H1224       H  0.30657544  0.98296922  0.71904553     0.16100
H1225       H  0.36526082  0.00687685  0.83127144     0.16100
C1226       C  0.37682706  0.58221814  0.81241209    -0.22900
H1227       H  0.27372206  0.90236385  0.71617016     0.06300
H1228       H  0.25176821  0.87319750  0.75483049     0.09500
H1229       H  0.31066278  0.89461555  0.73750571     0.09500
H1230       H  0.34783129  0.58516324  0.81402146     0.09500
H1231       H  0.41089162  0.61472041  0.80061477     0.09500
H1232       H  0.38652951  0.58174124  0.83754546     0.06300
C1233       C  0.46065894  0.67435565  0.74554956    -0.19500
C1234       C  0.43351978  0.62778773  0.73114190    -0.06100
C1235       C  0.45272707  0.60494537  0.73443680     0.14800
C1236       C  0.48865951  0.62208724  0.75828299    -0.19600
C1237       C  0.01149001  0.66535870  0.77745564    -0.06100
C1238       C  0.00162734  0.69425261  0.76690320     0.14800
C1239       C  0.03245380  0.74590874  0.77815588    -0.22900
H1240       H  0.44879679  0.69426688  0.74183813     0.16100
H1241       H  0.49717798  0.59974085  0.76260866     0.16100
C1242       C  0.43432831  0.56130807  0.71377011    -0.22900
H1243       H  0.03172380  0.76633307  0.75975352     0.06300
H1244       H  0.07217860  0.76332377  0.78061524     0.09500
H1245       H  0.01732501  0.74784031  0.80161117     0.09500
H1246       H  0.40528248  0.55072394  0.69657403     0.09500
H1247       H  0.41872463  0.53028370  0.72938673     0.09500
H1248       H  0.46618168  0.56984558  0.69925745     0.06300
C1249       C  0.16963481  0.00616609  0.80096653    -0.19500
C1250       C  0.11860562  0.96284589  0.80284926    -0.06100
C1251       C  0.08281782  0.96561663  0.79462182     0.14800
C1252       C  0.09745598  0.00252224  0.77450818    -0.19600
C1253       C  0.14939884  0.54336466  0.77030370    -0.06100
C1254       C  0.18532202  0.54655669  0.78669932     0.14800
C1255       C  0.23808451  0.59408776  0.78921435    -0.22900
H1256       H  0.19833825  0.00660196  0.80905978     0.16100
H1257       H  0.07039706  0.49394678  0.75917887     0.16100
C1258       C  0.02909586  0.92948311  0.80578614    -0.22900
H1259       H  0.26233241  0.59057001  0.80179692     0.06300
H1260       H  0.23812324  0.62056121  0.80329621     0.09500
H1261       H  0.25391480  0.60850679  0.76476193     0.09500
H1262       H  0.02280122  0.90277581  0.82198067     0.09500
H1263       H  0.00378751  0.91094119  0.78472104     0.09500
H1264       H  0.01958630  0.94888253  0.81999795     0.06300
C1265       C  0.10936390  0.66286353  0.78521142    -0.19500
C1266       C  0.06491245  0.62834819  0.80291665    -0.06100
C1267       C  0.04450952  0.57984051  0.80244110     0.14800
C1268       C  0.06747363  0.56695636  0.78297213    -0.19600
C1269       C  0.11248566  0.60129792  0.76566370    -0.06100
C1270       C  0.13370500  0.65015364  0.76701184     0.14800
C1271       C  0.18097625  0.68950055  0.74856374    -0.22900
H1272       H  0.12516954  0.70010538  0.78543752     0.16100
H1273       H  0.04812894  0.52907018  0.78065227     0.16100
C1274       C  0.99692093  0.54047164  0.82077042    -0.22900
H1275       H  0.20915664  0.71888461  0.76582740     0.06300
H1276       H  0.17267441  0.70479101  0.73066624     0.09500
H1277       H  0.19790993  0.67642985  0.73527399     0.09500
H1278       H  0.98403538  0.50409466  0.81481427     0.09500
H1279       H  0.96652335  0.53990429  0.81485182     0.09500
H1280       H  0.00338356  0.54594334  0.84725444     0.06300
N1281       N  0.66285172  0.07794864  0.24468242    -0.02700
C1282       C  0.63025220  0.08480448  0.23961805    -0.00100
C1283       C  0.61129229  0.06951972  0.20883895    -0.23000
C1284       C  0.63506284  0.05561026  0.19376136    -0.23200
C1285       C  0.67152854  0.06792238  0.21419522    -0.00200
H1286       H  0.58442456  0.06996682  0.19833917     0.13600
H1287       H  0.63240309  0.04479310  0.16864282     0.13600
N1288       N  0.53497379  0.17490838  0.30823716    -0.02700
C1289       C  0.53884726  0.14318851  0.31921982    -0.00100
C1290       C  0.52304219  0.13227584  0.35121075    -0.23000
C1291       C  0.51041779  0.15885136  0.36084012    -0.23200
C1292       C  0.52538925  0.19016586  0.33594455    -0.00200
H1293       H  0.52623283  0.11234088  0.36737171     0.13600
H1294       H  0.50445339  0.16386466  0.38611343     0.13600
N1295       N  0.88201096  0.09925126  0.22296674    -0.02700
C1296       C  0.86399418  0.11932748  0.21141773    -0.00100
C1297       C  0.82144218  0.10258536  0.22897595    -0.23000
C1298       C  0.80917615  0.06791368  0.24924598    -0.23200
C1299       C  0.84603917  0.06600486  0.24478466    -0.00200
H1300       H  0.79750291  0.10948137  0.22359830     0.13600
H1301       H  0.77570123  0.04470543  0.26426673     0.13600
N1302       N  0.93759348  0.35110032  0.19280192    -0.02700
C1303       C  0.93014603  0.38269779  0.19312434    -0.00100
C1304       C  0.90100577  0.37230334  0.16711723    -0.23000
C1305       C  0.88665991  0.33072069  0.15236339    -0.23200
C1306       C  0.90875033  0.31768928  0.16899586    -0.00200
H1307       H  0.88380712  0.38719312  0.16320693     0.13600
H1308       H  0.85849359  0.30941156  0.13389588     0.13600
N1309       N  0.82505865  0.41878713  0.30576935    -0.02700
C1310       C  0.86624591  0.42407103  0.30780654    -0.00100
C1311       C  0.86923707  0.41231502  0.33833862    -0.23000
C1312       C  0.82613000  0.39473321  0.35459053    -0.23200
C1313       C  0.79976272  0.39893899  0.33411718    -0.00200
H1314       H  0.89585498  0.40960138  0.34602947     0.13600
H1315       H  0.81405583  0.37797919  0.37799160     0.13600
N1316       N  0.60490729  0.41439948  0.30216784    -0.02700
C1317       C  0.63411718  0.40653441  0.31377054    -0.00100
C1318       C  0.63654166  0.37882696  0.29135269    -0.23000
C1319       C  0.60555619  0.36620995  0.26642962    -0.23200
C1320       C  0.58492493  0.38637542  0.27425042    -0.00200
H1321       H  0.65343095  0.36353333  0.29495767     0.13600
H1322       H  0.59709394  0.34291152  0.24561817     0.13600
Fe1323     Fe  0.58716432  0.32074560  0.39956713     1.65800
Fe1324     Fe  0.65545711  0.29155701  0.38074535     1.73200
Fe1325     Fe  0.71265302  0.41005043  0.38991729     1.54400
O1326       O  0.67550394  0.42582241  0.36387823    -0.80900
O1327       O  0.70326660  0.31693354  0.41776798    -0.79200
O1328       O  0.59580275  0.35562596  0.35852519    -0.83400
O1329       O  0.61505896  0.38215548  0.42853566    -0.78300
O1330       O  0.73841744  0.40471125  0.34589030    -0.80000
O1331       O  0.59528767  0.24325488  0.41295714    -0.82800
C1332       C  0.65333555  0.40649823  0.44636964     0.98000
C1333       C  0.63442917  0.39712584  0.34818224     1.05400
O1334       O  0.65262162  0.34156873  0.38968875    -1.11800
O1335       O  0.60809486  0.26512112  0.34211416    -0.74200
O1336       O  0.54866285  0.25542508  0.37144769    -0.77700
O1337       O  0.69462630  0.42057393  0.43549163    -0.78400
C1338       C  0.56214366  0.24116826  0.34856428     0.96900
O1339       O  0.58269014  0.28700288  0.44103653    -0.76300
O1340       O  0.71840979  0.33397567  0.35095323    -0.81500
C1341       C  0.74328425  0.35978496  0.42450142     0.99500
C1342       C  0.74829955  0.37761318  0.34188617     1.05400
O1343       O  0.75340382  0.39771537  0.41438903    -0.77200
C1344       C  0.58695257  0.25527436  0.44002795     1.03700
N1345       N  0.86240326  0.08947244  0.02480643    -0.02700
C1346       C  0.83664571  0.10021984  0.04153348    -0.00100
C1347       C  0.79428472  0.08169020  0.02441581    -0.23000
C1348       C  0.79147250  0.05608216  0.99811316    -0.23200
C1349       C  0.83260181  0.06026993  0.99926943    -0.00200
H1350       H  0.76451999  0.08086717  0.03272747     0.13600
H1351       H  0.75926617  0.03134152  0.98272891     0.13600
N1352       N  0.82127997  0.40377578  0.45750834    -0.02700
C1353       C  0.84783344  0.39199281  0.46697804    -0.00100
C1354       C  0.82283166  0.34402698  0.45767872    -0.23000
C1355       C  0.78061323  0.32643685  0.44210492    -0.23200
C1356       C  0.78062502  0.36375260  0.44216054    -0.00200
H1357       H  0.83379805  0.32346553  0.46144368     0.13600
H1358       H  0.75346550  0.29055527  0.43115256     0.13600
N1359       N  0.88561276  0.29313259  0.04121724    -0.03500
C1360       C  0.87068196  0.31295974  0.02557607    -0.00100
C1361       C  0.81943051  0.28429002  0.02972357    -0.23000
C1362       C  0.80301789  0.24647632  0.04876448    -0.23200
C1363       C  0.84456740  0.25283797  0.05580719    -0.00200
H1364       H  0.79720848  0.29273200  0.02262999     0.13600
H1365       H  0.76565218  0.21995401  0.05902037     0.13600
N1366       N  0.61122713  0.40873971  0.49479289    -0.02700
C1367       C  0.64679168  0.40840897  0.48192763    -0.00100
C1368       C  0.64309779  0.37318879  0.49688122    -0.23000
C1369       C  0.59894410  0.34519776  0.51417354    -0.23200
C1370       C  0.57923646  0.36640378  0.51098426    -0.00200
H1371       H  0.66289455  0.36127739  0.48940323     0.13600
H1372       H  0.58122575  0.31108650  0.52526586     0.13600
N1373       N  0.63377475  0.06099654  0.06467423    -0.02700
C1374       C  0.59188203  0.05543161  0.06316286    -0.00100
C1375       C  0.56938227  0.04416055  0.09356638    -0.23000
C1376       C  0.60617110  0.06046462  0.11489327    -0.23200
C1377       C  0.64585075  0.07154955  0.09666341    -0.00200
H1378       H  0.53623076  0.03868946  0.09995802     0.13600
H1379       H  0.60537769  0.06894564  0.14009321     0.13600
N1380       N  0.56492348  0.19398371  0.48120366    -0.02700
C1381       C  0.59821081  0.19107081  0.49294615    -0.00100
C1382       C  0.64624998  0.23534391  0.49216403    -0.23000
C1383       C  0.64364030  0.26660841  0.47884477    -0.23200
C1384       C  0.59457305  0.24049894  0.47028042    -0.00200
H1385       H  0.67962421  0.24410052  0.50094862     0.13600
H1386       H  0.67520104  0.30409871  0.47396788     0.13600
Fe1387     Fe  0.76736625  0.08326032  0.13636819     1.65800
Fe1388     Fe  0.78422061  0.18364485  0.15027408     1.73200
Fe1389     Fe  0.88236502  0.19326832  0.12363878     1.54400
O1390       O  0.89152560  0.17022043  0.16568970    -0.80900
O1391       O  0.81844408  0.22503853  0.10872036    -0.79200
O1392       O  0.82331461  0.09088966  0.16077249    -0.83400
O1393       O  0.79296761  0.08433724  0.09066628    -0.78300
O1394       O  0.90803032  0.25744708  0.14656229    -0.80000
O1395       O  0.71942226  0.13678997  0.12370242    -0.82800
C1396       C  0.83574043  0.10850656  0.07740772     0.98000
C1397       C  0.86198546  0.12709715  0.17652176     1.05400
O1398       O  0.81062822  0.15312835  0.13702097    -1.11800
O1399       O  0.74442114  0.14126483  0.19130353    -0.74200
O1400       O  0.73054499  0.07314799  0.18065926    -0.77700
O1401       O  0.87438961  0.14071550  0.09371843    -0.78400
C1402       C  0.72098623  0.09681929  0.19662921     0.96900
O1403       O  0.70996525  0.07165683  0.11192539    -0.76300
O1404       O  0.84544137  0.23437354  0.17894259    -0.81500
C1405       C  0.84478820  0.22998427  0.08416980     0.99500
C1406       C  0.88838397  0.26750757  0.16682348     1.05400
O1407       O  0.86973211  0.21629410  0.08364265    -0.77200
C1408       C  0.69526526  0.09494334  0.11072180     1.03700
C1409       C  0.59001884  0.08699402  0.01093765    -0.19500
C1410       C  0.59248198  0.09049814  0.04501679    -0.06100
C1411       C  0.59574981  0.12807549  0.06107650     0.14800
C1412       C  0.59052063  0.15570250  0.04313132    -0.19600
C1413       C  0.58768578  0.15043795  0.50982461    -0.06100
C1414       C  0.58910780  0.11638340  0.49373881     0.14800
C1415       C  0.59591814  0.11523635  0.45741130    -0.22900
H1416       H  0.58770126  0.05932914  0.99806493     0.16100
H1417       H  0.59193177  0.18329317  0.05541052     0.16100
C1418       C  0.60934735  0.14370459  0.09641613    -0.22900
H1419       H  0.63060459  0.12163374  0.45194103     0.06300
H1420       H  0.59925945  0.14330158  0.44502977     0.09500
H1421       H  0.56358239  0.07911180  0.44714985     0.09500
H1422       H  0.64364211  0.15037213  0.10179557     0.09500
H1423       H  0.57796560  0.11691884  0.11298115     0.09500
H1424       H  0.61805533  0.17831727  0.10224094     0.06300
C1425       C  0.62894323  0.45635699  0.04447475    -0.19500
C1426       C  0.62509444  0.45274753  0.01049044    -0.06100
C1427       C  0.63227481  0.48904502  0.49473353     0.14800
C1428       C  0.64003309  0.02704255  0.01292464    -0.19600
C1429       C  0.63484880  0.02612207  0.04721062    -0.06100
C1430       C  0.62494789  0.48642493  0.06307239     0.14800
C1431       C  0.60360640  0.47018733  0.09731014    -0.22900
H1432       H  0.62835580  0.43071110  0.05672838     0.16100
H1433       H  0.64593620  0.05640817  0.50135948     0.16100
C1434       C  0.63003027  0.48720261  0.45829893    -0.22900
H1435       H  0.59410990  0.43585445  0.10305175     0.06300
H1436       H  0.56845737  0.96503719  0.09908169     0.09500
H1437       H  0.62888939  0.99702046  0.11654249     0.09500
H1438       H  0.59323797  0.45274629  0.45019232     0.09500
H1439       H  0.66039204  0.48927752  0.44743941     0.09500
H1440       H  0.63372682  0.01900890  0.44975737     0.06300
C1441       C  0.94175939  0.29138923  0.00739252    -0.19500
C1442       C  0.93294319  0.30611834  0.03641013    -0.06100
C1443       C  0.97132304  0.33610658  0.05882879     0.14800
C1444       C  0.51781090  0.35351734  0.04986133    -0.19600
C1445       C  0.52772340  0.34313719  0.01919048    -0.06100
C1446       C  0.98698767  0.30863073  0.50012571     0.14800
C1447       C  0.99616463  0.29446283  0.46785521    -0.22900
H1448       H  0.91111414  0.26674824  0.99085725     0.16100
H1449       H  0.54687293  0.37470746  0.06748183     0.16100
C1450       C  0.96238235  0.35237589  0.08985625    -0.22900
H1451       H  0.96087362  0.26701342  0.45441533     0.06300
H1452       H  0.01325908  0.27871767  0.47175907     0.09500
H1453       H  0.02154618  0.32685874  0.45259118     0.09500
H1454       H  0.93219444  0.32012459  0.10375880     0.09500
H1455       H  0.95120996  0.37323372  0.08453094     0.09500
H1456       H  0.49705111  0.37968183  0.10280401     0.06300
C1457       C  0.92745704  0.41510644  0.47128380    -0.19500
C1458       C  0.89674796  0.42363715  0.48404595    -0.06100
C1459       C  0.89422646  0.42449706  0.01946244     0.14800
C1460       C  0.89531068  0.39232304  0.03510165    -0.19600
C1461       C  0.90307667  0.36468991  0.01656239    -0.06100
C1462       C  0.92545093  0.38152009  0.98515442     0.14800
C1463       C  0.94003929  0.35601384  0.46601654    -0.22900
H1464       H  0.93983658  0.42382406  0.44611756     0.16100
H1465       H  0.88445571  0.38483586  0.06057689     0.16100
C1466       C  0.89062589  0.45724432  0.03920824    -0.22900
H1467       H  0.95268532  0.37052381  0.44110677     0.06300
H1468       H  0.90847453  0.31631816  0.46355064     0.09500
H1469       H  0.97246436  0.36489253  0.47789816     0.09500
H1470       H  0.85684364  0.43555695  0.05516770     0.09500
H1471       H  0.88972558  0.48005777  0.02340371     0.09500
H1472       H  0.92401654  0.48173093  0.05481230     0.06300
C1473       C  0.93368842  0.09371954  0.01340226    -0.19500
C1474       C  0.91647317  0.11796092  0.02222181    -0.06100
C1475       C  0.95079072  0.16887891  0.01815519     0.14800
C1476       C  0.00192636  0.19365675  0.50643162    -0.19600
C1477       C  0.51403525  0.16736741  0.49429790    -0.06100
C1478       C  0.47890703  0.11690766  0.99705821     0.14800
C1479       C  0.48440260  0.08439174  0.97888210    -0.22900
H1480       H  0.90871404  0.05501970  0.01643830     0.16100
H1481       H  0.52712035  0.23232802  0.50547476     0.16100
C1482       C  0.93667760  0.19863994  0.02590279    -0.22900
H1483       H  0.95048702  0.05759815  0.96193424     0.06300
H1484       H  0.48874148  0.06530886  0.99616832     0.09500
H1485       H  0.51480738  0.10416493  0.46104992     0.09500
H1486       H  0.92664014  0.19652834  0.05183633     0.09500
H1487       H  0.90548084  0.18679446  0.01038081     0.09500
H1488       H  0.96885888  0.23727166  0.02186359     0.06300
C1489       C  0.80387688  0.48188096  0.00570861    -0.19500
C1490       C  0.82892686  0.02005108  0.98645377    -0.06100
C1491       C  0.85355422  0.02430158  0.45672135     0.14800
C1492       C  0.85118614  0.48437784  0.44839496    -0.19600
C1493       C  0.82635255  0.44424168  0.46839349    -0.06100
C1494       C  0.80069144  0.44289363  0.99721716     0.14800
C1495       C  0.76939063  0.39936466  0.01867219    -0.22900
H1496       H  0.78550840  0.48066557  0.02790121     0.16100
H1497       H  0.86891519  0.48531877  0.42598284     0.16100
C1498       C  0.87998515  0.06639354  0.43438632    -0.22900
H1499       H  0.78128974  0.41089015  0.04426892     0.06300
H1500       H  0.72962323  0.38203219  0.01772746     0.09500
H1501       H  0.77196659  0.37172126  0.01160208     0.09500
H1502       H  0.91109082  0.10051400  0.44727555     0.09500
H1503       H  0.85311102  0.06962690  0.42629827     0.09500
H1504       H  0.89582823  0.06163238  0.41247378     0.06300
C1505       C  0.88953446  0.36179242  0.24628133    -0.19500
C1506       C  0.92191937  0.39842209  0.22402700    -0.06100
C1507       C  0.93597673  0.44410776  0.22900139     0.14800
C1508       C  0.91791890  0.45228877  0.25679887    -0.19600
C1509       C  0.88618450  0.41558949  0.27932235    -0.06100
C1510       C  0.87075712  0.36926371  0.27347219     0.14800
C1511       C  0.83169805  0.32616350  0.29427659    -0.22900
H1512       H  0.87597917  0.32576738  0.24118384     0.16100
H1513       H  0.92764718  0.48685418  0.26059778     0.16100
C1514       C  0.96932643  0.48364033  0.20495175    -0.22900
H1515       H  0.82069156  0.29200889  0.28374373     0.06300
H1516       H  0.79735802  0.32106411  0.29628574     0.09500
H1517       H  0.84635302  0.33123271  0.31878620     0.09500
H1518       H  0.95010497  0.47307590  0.18141797     0.09500
H1519       H  0.00397735  0.48975355  0.20107196     0.09500
H1520       H  0.97996983  0.51826753  0.21380916     0.06300
C1521       C  0.95931926  0.32723690  0.23821316    -0.19500
C1522       C  0.97438523  0.35725459  0.21197986    -0.06100
C1523       C  0.02610113  0.39621825  0.20616707     0.14800
C1524       C  0.56014823  0.40429424  0.22629644    -0.19600
C1525       C  0.54549959  0.37693864  0.25407494    -0.06100
C1526       C  0.99470455  0.33650402  0.25954480     0.14800
C1527       C  0.97632635  0.30459516  0.28833464    -0.22900
H1528       H  0.91973003  0.29736589  0.24250959     0.16100
H1529       H  0.59975849  0.43296725  0.22091609     0.16100
C1530       C  0.04402567  0.42840621  0.17767256    -0.22900
H1531       H  0.93479507  0.27657488  0.28957530     0.06300
H1532       H  0.98947296  0.32624329  0.31135005     0.09500
H1533       H  0.99059824  0.28585754  0.28648516     0.09500
H1534       H  0.03098095  0.44852041  0.18017989     0.09500
H1535       H  0.02934951  0.40595568  0.15501867     0.09500
H1536       H  0.58335933  0.45165083  0.17330364     0.06300
C1537       C  0.82119014  0.48598964  0.24251303    -0.19500
C1538       C  0.84371088  0.02970746  0.26116829    -0.06100
C1539       C  0.85876141  0.03667320  0.29364934     0.14800
C1540       C  0.84901157  0.49797548  0.30696103    -0.19600
C1541       C  0.82785223  0.45436651  0.28998765    -0.06100
C1542       C  0.81320071  0.44793529  0.25758444     0.14800
C1543       C  0.78815490  0.40064428  0.23944513    -0.22900
H1544       H  0.80952193  0.48122861  0.21766175     0.16100
H1545       H  0.86008256  0.50240619  0.33193102     0.16100
C1546       C  0.87866221  0.08176245  0.31317758    -0.22900
H1547       H  0.77794796  0.40116811  0.21450265     0.06300
H1548       H  0.75341242  0.37080106  0.25269695     0.09500
H1549       H  0.81352285  0.39316169  0.23733629     0.09500
H1550       H  0.84982971  0.08491496  0.31516730     0.09500
H1551       H  0.91262313  0.11420522  0.30126864     0.09500
H1552       H  0.88867725  0.08114670  0.33817211     0.06300
C1553       C  0.96143127  0.17431491  0.24586956    -0.19500
C1554       C  0.93417103  0.12754459  0.23171139    -0.06100
C1555       C  0.95354551  0.10484427  0.23513292     0.14800
C1556       C  0.98968646  0.12234072  0.25890231    -0.19600
C1557       C  0.51004680  0.16546574  0.27730160    -0.06100
C1558       C  0.49930554  0.19408618  0.26766775     0.14800
C1559       C  0.52794035  0.24470429  0.28057289    -0.22900
H1560       H  0.94961536  0.19423143  0.24201782     0.16100
H1561       H  0.99834122  0.10013527  0.26334942     0.16100
C1562       C  0.93518401  0.06101260  0.21470989    -0.22900
H1563       H  0.52731160  0.26568754  0.26266428     0.06300
H1564       H  0.56782484  0.26315350  0.28380644     0.09500
H1565       H  0.51078895  0.24433946  0.30383016     0.09500
H1566       H  0.90618446  0.05029082  0.19741319     0.09500
H1567       H  0.91956021  0.03012983  0.23050844     0.09500
H1568       H  0.96707628  0.06937115  0.20034977     0.06300
C1569       C  0.67102091  0.50449143  0.30045536    -0.19500
C1570       C  0.61976157  0.46193956  0.30336192    -0.06100
C1571       C  0.58448803  0.46583287  0.29649024     0.14800
C1572       C  0.59871787  0.50209841  0.27596176    -0.19600
C1573       C  0.64807136  0.04294244  0.26901623    -0.06100
C1574       C  0.68340655  0.04583534  0.28597690     0.14800
C1575       C  0.73633221  0.09309129  0.28858575    -0.22900
H1576       H  0.69955853  0.50415714  0.30767464     0.16100
H1577       H  0.56942191  0.99390337  0.25705476     0.16100
C1578       C  0.53167999  0.43136348  0.30945732    -0.22900
H1579       H  0.76006225  0.08933548  0.30165083     0.06300
H1580       H  0.73657961  0.11997099  0.30222342     0.09500
H1581       H  0.75259810  0.10711655  0.26412995     0.09500
H1582       H  0.52619924  0.40561545  0.32623954     0.09500
H1583       H  0.50462717  0.41179363  0.28934707     0.09500
H1584       H  0.52406517  0.45232562  0.32364037     0.06300
C1585       C  0.60864725  0.16302338  0.28360468    -0.19500
C1586       C  0.56428135  0.12838409  0.30135320    -0.06100
C1587       C  0.54395645  0.07992518  0.30074373     0.14800
C1588       C  0.56714136  0.06721323  0.28138505    -0.19600
C1589       C  0.61210460  0.10165247  0.26406972    -0.06100
C1590       C  0.63302509  0.15041474  0.26528677     0.14800
C1591       C  0.68001804  0.18973209  0.24659575    -0.22900
H1592       H  0.62434732  0.20023339  0.28390889     0.16100
H1593       H  0.54795562  0.02943941  0.27912528     0.16100
C1594       C  0.49609008  0.04035427  0.31877335    -0.22900
H1595       H  0.70841306  0.21923717  0.26371381     0.06300
H1596       H  0.67137166  0.20484611  0.22880798     0.09500
H1597       H  0.69686281  0.17668910  0.23312211     0.09500
H1598       H  0.48319394  0.00403543  0.31260130     0.09500
H1599       H  0.46588359  0.04005388  0.31281221     0.09500
H1600       H  0.50210171  0.04531749  0.34529573     0.06300
N1601       N  0.66265681  0.07652697  0.74525694    -0.02700
C1602       C  0.62956195  0.08268517  0.73999286    -0.00100
C1603       C  0.60956425  0.06569819  0.70958715    -0.23000
C1604       C  0.63331217  0.05164603  0.69473671    -0.23200
C1605       C  0.67061918  0.06525543  0.71496195    -0.00200
H1606       H  0.58222782  0.06544872  0.69908867     0.13600
H1607       H  0.63016509  0.04037121  0.66963436     0.13600
N1608       N  0.53713833  0.17550698  0.80810061    -0.02700
C1609       C  0.53998425  0.14311580  0.81914133    -0.00100
C1610       C  0.52362357  0.13196274  0.85101612    -0.23000
C1611       C  0.51195053  0.15933715  0.86064037    -0.23200
C1612       C  0.52740591  0.19077644  0.83572187    -0.00200
H1613       H  0.52561345  0.11099242  0.86701802     0.13600
H1614       H  0.50574201  0.16431017  0.88585749     0.13600
N1615       N  0.88118608  0.09991805  0.72237208    -0.02700
C1616       C  0.86236878  0.11907395  0.71074535    -0.00100
C1617       C  0.81890774  0.10074688  0.72762975    -0.23000
C1618       C  0.80672667  0.06564325  0.74733189    -0.23200
C1619       C  0.84480819  0.06543877  0.74340434    -0.00200
H1620       H  0.79445411  0.10675981  0.72185877     0.13600
H1621       H  0.77259432  0.04104249  0.76154105     0.13600
N1622       N  0.93604649  0.34840996  0.69465823    -0.02700
C1623       C  0.92910009  0.38039618  0.69611138    -0.00100
C1624       C  0.89907966  0.37061478  0.67088016    -0.23000
C1625       C  0.88411466  0.32926685  0.65525476    -0.23200
C1626       C  0.90664920  0.31579668  0.67065855    -0.00200
H1627       H  0.88215629  0.38601056  0.66800311     0.13600
H1628       H  0.85547401  0.30840740  0.63702125     0.13600
N1629       N  0.82871639  0.42069737  0.80863444    -0.02700
C1630       C  0.86898763  0.42458881  0.81118120    -0.00100
C1631       C  0.87014191  0.41139827  0.84168653    -0.23000
C1632       C  0.82683927  0.39450779  0.85730205    -0.23200
C1633       C  0.80211462  0.40041149  0.83652105    -0.00200
H1634       H  0.89530788  0.40690312  0.84959640     0.13600
H1635       H  0.81323412  0.37649324  0.88025831     0.13600
N1636       N  0.60410407  0.41307088  0.80005790    -0.02700
C1637       C  0.63422003  0.40658388  0.81225325    -0.00100
C1638       C  0.63883760  0.38026951  0.79000414    -0.23000
C1639       C  0.60860612  0.36725811  0.76447383    -0.23200
C1640       C  0.58581962  0.38537501  0.77189308    -0.00200
H1641       H  0.65701837  0.36634263  0.79393429     0.13600
H1642       H  0.60228176  0.34522357  0.74338799     0.13600
Fe1643     Fe  0.58751568  0.32154396  0.89861553     1.65800
Fe1644     Fe  0.65622787  0.29245188  0.88099942     1.73200
Fe1645     Fe  0.71317910  0.41090492  0.88926220     1.54400
O1646       O  0.67623559  0.42623836  0.86220824    -0.80900
O1647       O  0.70304904  0.31781805  0.91858882    -0.79200
O1648       O  0.59618825  0.35629916  0.85741291    -0.83400
O1649       O  0.61495930  0.38287686  0.92754365    -0.78300
O1650       O  0.73953695  0.40513642  0.84576934    -0.80000
O1651       O  0.59529186  0.24403174  0.91266791    -0.82800
C1652       C  0.65348343  0.40787667  0.94520029     0.98000
C1653       C  0.63479650  0.39760998  0.84681301     1.05400
O1654       O  0.65314842  0.34245042  0.88922707    -1.11800
O1655       O  0.60973356  0.26606405  0.84197092    -0.74200
O1656       O  0.54964189  0.25617778  0.87058159    -0.77700
O1657       O  0.69484709  0.42219235  0.93431648    -0.78400
C1658       C  0.56366024  0.24187326  0.84814722     0.96900
O1659       O  0.58261552  0.28795124  0.94029514    -0.76300
O1660       O  0.72003175  0.33489211  0.85187909    -0.81500
C1661       C  0.74301788  0.36066590  0.92536378     0.99500
C1662       C  0.75013572  0.37856297  0.84287727     1.05400
O1663       O  0.75345936  0.39858961  0.91477285    -0.77200
C1664       C  0.58670825  0.25612485  0.93956899     1.03700
N1665       N  0.86447603  0.09195761  0.52473044    -0.02700
C1666       C  0.83877518  0.10296747  0.54114441    -0.00100
C1667       C  0.79752671  0.08592936  0.52330668    -0.23000
C1668       C  0.79523618  0.06091436  0.49679622    -0.23200
C1669       C  0.83554234  0.06390896  0.49860860    -0.00200
H1670       H  0.76783214  0.08537787  0.53127247     0.13600
H1671       H  0.76353958  0.03698754  0.48090133     0.13600
N1672       N  0.82083132  0.40466369  0.95867422    -0.02700
C1673       C  0.84677755  0.39258313  0.96891280    -0.00100
C1674       C  0.82126059  0.34431888  0.96035331    -0.23000
C1675       C  0.77914750  0.32673748  0.94457731    -0.23200
C1676       C  0.77985723  0.36446535  0.94368807    -0.00200
H1677       H  0.83210720  0.32375028  0.96451186     0.13600
H1678       H  0.75173988  0.29063799  0.93398976     0.13600
N1679       N  0.88138213  0.29013951  0.54136250    -0.03500
C1680       C  0.86670427  0.31032767  0.52594435    -0.00100
C1681       C  0.81563202  0.28234967  0.53066119    -0.23000
C1682       C  0.79922498  0.24490755  0.55015129    -0.23200
C1683       C  0.84058593  0.25072423  0.55672302    -0.00200
H1684       H  0.79368454  0.29113837  0.52361394     0.13600
H1685       H  0.76211231  0.21902030  0.56089829     0.13600
N1686       N  0.61121018  0.40965442  0.99362601    -0.02700
C1687       C  0.64734159  0.41022226  0.98074325    -0.00100
C1688       C  0.64468125  0.37566270  0.99575366    -0.23000
C1689       C  0.60027968  0.34669899  0.01273906    -0.23200
C1690       C  0.57960970  0.36697991  0.00949225    -0.00200
H1691       H  0.66547104  0.36478688  0.98842261     0.13600
H1692       H  0.58320624  0.31269980  0.02376648     0.13600
N1693       N  0.63148130  0.05922592  0.56588299    -0.02700
C1694       C  0.58942618  0.05336513  0.56459425    -0.00100
C1695       C  0.56747044  0.04264605  0.59518862    -0.23000
C1696       C  0.60440930  0.05866269  0.61631418    -0.23200
C1697       C  0.64384438  0.06971714  0.59780246    -0.00200
H1698       H  0.53457001  0.03751892  0.60181458     0.13600
H1699       H  0.60397350  0.06684356  0.64164793     0.13600
N1700       N  0.56503221  0.19502621  0.98071854    -0.02700
C1701       C  0.59881925  0.19314022  0.99294776    -0.00100
C1702       C  0.64637739  0.23798558  0.99276774    -0.23000
C1703       C  0.64304850  0.26863329  0.97927135    -0.23200
C1704       C  0.59411140  0.24158663  0.97001213    -0.00200
H1705       H  0.67992693  0.24746694  0.00193623     0.13600
H1706       H  0.67417021  0.30632533  0.97462768     0.13600
Fe1707     Fe  0.76633179  0.08218212  0.63540480     1.65800
Fe1708     Fe  0.78230178  0.18154744  0.65151646     1.73200
Fe1709     Fe  0.88071577  0.19263134  0.62351011     1.54400
O1710       O  0.89039094  0.17012693  0.66533926    -0.80900
O1711       O  0.81540774  0.22298749  0.60977350    -0.79200
O1712       O  0.82266849  0.09052838  0.65987887    -0.83400
O1713       O  0.79275783  0.08454871  0.58963718    -0.78300
O1714       O  0.90580819  0.25655901  0.64616120    -0.80000
O1715       O  0.71662789  0.13413835  0.62582679    -0.82800
C1716       C  0.83599953  0.10917567  0.57706802     0.98000
C1717       C  0.86089292  0.12689499  0.67591721     1.05400
O1718       O  0.80903018  0.15181545  0.63706276    -1.11800
O1719       O  0.74406426  0.13908307  0.69270345    -0.74200
O1720       O  0.72812212  0.07047512  0.67945976    -0.77700
O1721       O  0.87378366  0.14044715  0.59418807    -0.78400
C1722       C  0.71960627  0.09413349  0.69676936     0.96900
O1723       O  0.70943597  0.07102214  0.61082321    -0.76300
O1724       O  0.84403964  0.23229526  0.67975195    -0.81500
C1725       C  0.84138832  0.22802797  0.58487708     0.99500
C1726       C  0.88650749  0.26587212  0.66732877     1.05400
O1727       O  0.86666612  0.21466024  0.58381206    -0.77200
C1728       C  0.69344650  0.09327147  0.61148215     1.03700
C1729       C  0.58587720  0.08312440  0.51212008    -0.19500
C1730       C  0.58964685  0.08786808  0.54611862    -0.06100
C1731       C  0.59473799  0.12664841  0.56176318     0.14800
C1732       C  0.59008511  0.15451358  0.54357621    -0.19600
C1733       C  0.58909196  0.15262769  0.00936092    -0.06100
C1734       C  0.59222625  0.11992722  0.99292997     0.14800
C1735       C  0.59954110  0.11980797  0.95658875    -0.22900
H1736       H  0.58216278  0.05445343  0.49959078     0.16100
H1737       H  0.59288439  0.18307443  0.55557392     0.16100
C1738       C  0.60974441  0.14316246  0.59683380    -0.22900
H1739       H  0.63508312  0.12781629  0.95107281     0.06300
H1740       H  0.60149751  0.14724086  0.94451879     0.09500
H1741       H  0.56809522  0.08351163  0.94603037     0.09500
H1742       H  0.64379635  0.14917201  0.60175852     0.09500
H1743       H  0.57875285  0.11710641  0.61387261     0.09500
H1744       H  0.61941850  0.17828344  0.60237648     0.06300
C1745       C  0.62908202  0.45648313  0.54513662    -0.19500
C1746       C  0.62561346  0.45236639  0.51111879    -0.06100
C1747       C  0.63138928  0.48958393  0.99465711     0.14800
C1748       C  0.63857747  0.02695454  0.51358370    -0.19600
C1749       C  0.63338468  0.02526986  0.54786518    -0.06100
C1750       C  0.62549288  0.48725378  0.56314456     0.14800
C1751       C  0.60337904  0.47145763  0.59726184    -0.22900
H1752       H  0.62768844  0.43063219  0.55786657     0.16100
H1753       H  0.64786504  0.05644541  0.00027884     0.16100
C1754       C  0.62968219  0.48879377  0.95823419    -0.22900
H1755       H  0.59358465  0.43712963  0.60349205     0.06300
H1756       H  0.56875072  0.96396581  0.60000102     0.09500
H1757       H  0.62953680  0.99589682  0.61675291     0.09500
H1758       H  0.59311571  0.45447398  0.94972172     0.09500
H1759       H  0.66034261  0.49137964  0.94731339     0.09500
H1760       H  0.63403709  0.01727813  0.94917307     0.06300
C1761       C  0.93808559  0.28735130  0.50930608    -0.19500
C1762       C  0.92908243  0.30375872  0.53728849    -0.06100
C1763       C  0.96797286  0.33720724  0.55867183     0.14800
C1764       C  0.51660548  0.35384870  0.55010297    -0.19600
C1765       C  0.52719537  0.34286550  0.51994197    -0.06100
C1766       C  0.99029991  0.31149753  0.99837376     0.14800
C1767       C  0.99946284  0.29900487  0.96539020    -0.22900
H1768       H  0.90722712  0.26073310  0.49337909     0.16100
H1769       H  0.54536229  0.37572494  0.56785802     0.16100
C1770       C  0.95854919  0.35463791  0.58886876    -0.22900
H1771       H  0.96453654  0.27402735  0.95119790     0.06300
H1772       H  0.01425046  0.28086040  0.96829513     0.09500
H1773       H  0.02666037  0.33249935  0.95141113     0.09500
H1774       H  0.93067156  0.32323776  0.60425615     0.09500
H1775       H  0.94401135  0.37214229  0.58247805     0.09500
H1776       H  0.49407396  0.37961644  0.60241946     0.06300
C1777       C  0.92711998  0.41682934  0.97134165    -0.19500
C1778       C  0.89627795  0.42457033  0.98525576    -0.06100
C1779       C  0.89336176  0.42357807  0.51819941     0.14800
C1780       C  0.89195475  0.39018483  0.53441086    -0.19600
C1781       C  0.89957636  0.36196152  0.51659326    -0.06100
C1782       C  0.92385689  0.37892224  0.48565282     0.14800
C1783       C  0.94155389  0.35918777  0.96459815    -0.22900
H1784       H  0.93804567  0.42531394  0.94596368     0.16100
H1785       H  0.88002192  0.38280156  0.55972969     0.16100
C1786       C  0.89199453  0.45827553  0.53724802    -0.22900
H1787       H  0.95357891  0.37412186  0.93978246     0.06300
H1788       H  0.91004001  0.31952139  0.96192443     0.09500
H1789       H  0.97430195  0.36790211  0.97585587     0.09500
H1790       H  0.85806263  0.43820200  0.55304600     0.09500
H1791       H  0.89298048  0.48186362  0.52092057     0.09500
H1792       H  0.92531825  0.48184430  0.55298845     0.06300
C1793       C  0.93460508  0.09435406  0.51389156    -0.19500
C1794       C  0.91841714  0.11941173  0.52312170    -0.06100
C1795       C  0.95408965  0.17059884  0.52021948     0.14800
C1796       C  0.99922288  0.19282911  0.00506748    -0.19600
C1797       C  0.51401915  0.16789012  0.99374624    -0.06100
C1798       C  0.47831136  0.11635606  0.49724989     0.14800
C1799       C  0.48315557  0.08366344  0.47860115    -0.22900
H1800       H  0.90899009  0.05557447  0.51669486     0.16100
H1801       H  0.52592684  0.23240802  0.00442968     0.16100
C1802       C  0.94263415  0.20188780  0.53075124    -0.22900
H1803       H  0.95056842  0.05678067  0.46307131     0.06300
H1804       H  0.48667527  0.06366103  0.49556696     0.09500
H1805       H  0.51585871  0.10482951  0.96117901     0.09500
H1806       H  0.93443712  0.19898313  0.55704625     0.09500
H1807       H  0.91112024  0.19212195  0.51673453     0.09500
H1808       H  0.97560435  0.24054818  0.52719588     0.06300
C1809       C  0.80219541  0.47907451  0.50521003    -0.19500
C1810       C  0.83070410  0.02295458  0.48602421    -0.06100
C1811       C  0.85228919  0.02231688  0.95713060     0.14800
C1812       C  0.85151679  0.48532608  0.94873636    -0.19600
C1813       C  0.82637557  0.44550113  0.96905231    -0.06100
C1814       C  0.80000031  0.44071840  0.49648053     0.14800
C1815       C  0.76874455  0.39670478  0.51748467    -0.22900
H1816       H  0.78327236  0.47711184  0.52734062     0.16100
H1817       H  0.86880649  0.48558153  0.92631863     0.16100
C1818       C  0.87793853  0.06452535  0.93499600    -0.22900
H1819       H  0.77998488  0.40770077  0.54322206     0.06300
H1820       H  0.72885821  0.37887877  0.51620331     0.09500
H1821       H  0.77208131  0.36963527  0.51022200     0.09500
H1822       H  0.90850179  0.09880146  0.94799957     0.09500
H1823       H  0.85039524  0.06689058  0.92695452     0.09500
H1824       H  0.89436543  0.06055976  0.91305038     0.06300
C1825       C  0.88866610  0.35963036  0.74932129    -0.19500
C1826       C  0.92260476  0.39644349  0.72754581    -0.06100
C1827       C  0.93965976  0.44325147  0.73332740     0.14800
C1828       C  0.92252519  0.45227088  0.76121541    -0.19600
C1829       C  0.88847099  0.41518448  0.78294721    -0.06100
C1830       C  0.87045961  0.36787680  0.77650351     0.14800
C1831       C  0.82939488  0.32480347  0.79664053    -0.22900
H1832       H  0.87348405  0.32308123  0.74375546     0.16100
H1833       H  0.93466668  0.48784289  0.76560709     0.16100
C1834       C  0.97541586  0.48317842  0.71003323    -0.22900
H1835       H  0.81683822  0.29017945  0.78576225     0.06300
H1836       H  0.79627999  0.32174214  0.79829632     0.09500
H1837       H  0.84280296  0.32836326  0.82132329     0.09500
H1838       H  0.95772388  0.47406459  0.68603455     0.09500
H1839       H  0.00912858  0.48750238  0.70707679     0.09500
H1840       H  0.98721631  0.51826061  0.71905815     0.06300
C1841       C  0.96008166  0.32489344  0.73874446    -0.19500
C1842       C  0.97376914  0.35418606  0.71232464    -0.06100
C1843       C  0.02519464  0.39247867  0.70512102     0.14800
C1844       C  0.56132577  0.40381034  0.72399988    -0.19600
C1845       C  0.54649425  0.37493494  0.75093340    -0.06100
C1846       C  0.99654895  0.33441299  0.75905754     0.14800
C1847       C  0.97839442  0.30373273  0.78855350    -0.22900
H1848       H  0.92070273  0.29574459  0.74435062     0.16100
H1849       H  0.60095420  0.43319695  0.71914262     0.16100
C1850       C  0.04157171  0.42346478  0.67611386    -0.22900
H1851       H  0.95455901  0.30721090  0.80399343     0.06300
H1852       H  0.00941536  0.31449566  0.80367721     0.09500
H1853       H  0.95540455  0.26509889  0.78081858     0.09500
H1854       H  0.02806179  0.44317251  0.67846134     0.09500
H1855       H  0.02622411  0.40005912  0.65385257     0.09500
H1856       H  0.58486606  0.45505668  0.67313638     0.06300
C1857       C  0.82093180  0.48514411  0.74521285    -0.19500
C1858       C  0.84294334  0.02926640  0.75932017    -0.06100
C1859       C  0.85578763  0.03498519  0.79220994     0.14800
C1860       C  0.85429921  0.50069617  0.80851828    -0.19600
C1861       C  0.83214632  0.45634392  0.79227678    -0.06100
C1862       C  0.81479733  0.44817626  0.76047905     0.14800
C1863       C  0.78925063  0.40026973  0.74312915    -0.22900
H1864       H  0.80753963  0.47910890  0.72072915     0.16100
H1865       H  0.86703529  0.50630406  0.83315025     0.16100
C1866       C  0.87581507  0.07995853  0.81194780    -0.22900
H1867       H  0.77660864  0.39919270  0.71867309     0.06300
H1868       H  0.75597832  0.37070131  0.75755685     0.09500
H1869       H  0.81537521  0.39374745  0.74001684     0.09500
H1870       H  0.84833306  0.08487939  0.81255334     0.09500
H1871       H  0.91145500  0.11203578  0.80111953     0.09500
H1872       H  0.88314460  0.07790007  0.83742578     0.06300
C1873       C  0.95739847  0.17472294  0.74798052    -0.19500
C1874       C  0.93307166  0.12954255  0.73207059    -0.06100
C1875       C  0.95513773  0.10923884  0.73378863     0.14800
C1876       C  0.99282841  0.12800089  0.75658151    -0.19600
C1877       C  0.51281488  0.16686137  0.77705793    -0.06100
C1878       C  0.50278175  0.19613270  0.76786770     0.14800
C1879       C  0.53392631  0.24742781  0.77986459    -0.22900
H1880       H  0.94283252  0.19249046  0.74568484     0.16100
H1881       H  0.00473005  0.10813126  0.75891206     0.16100
C1882       C  0.93773106  0.06623659  0.71272420    -0.22900
H1883       H  0.53703974  0.26902256  0.76048216     0.06300
H1884       H  0.57262223  0.26343378  0.78478109     0.09500
H1885       H  0.51640413  0.24933578  0.80202831     0.09500
H1886       H  0.90790541  0.05477036  0.69593597     0.09500
H1887       H  0.92321714  0.03537822  0.72817424     0.09500
H1888       H  0.96974705  0.07581820  0.69776982     0.06300
C1889       C  0.66856400  0.50344020  0.80015845    -0.19500
C1890       C  0.61749191  0.46002121  0.80097052    -0.06100
C1891       C  0.58219628  0.46309527  0.79203625     0.14800
C1892       C  0.59773913  0.50018479  0.77178698    -0.19600
C1893       C  0.64932539  0.04330325  0.77066957    -0.06100
C1894       C  0.68551502  0.04619936  0.78639521     0.14800
C1895       C  0.73874296  0.09319983  0.78769695    -0.22900
H1896       H  0.69686806  0.50361398  0.80876316     0.16100
H1897       H  0.56979767  0.99472803  0.76193422     0.16100
C1898       C  0.52823679  0.42731569  0.80276513    -0.22900
H1899       H  0.76320493  0.08934562  0.79953857     0.06300
H1900       H  0.74023795  0.12048058  0.80192122     0.09500
H1901       H  0.75323303  0.10688840  0.76297414     0.09500
H1902       H  0.52100229  0.39984284  0.81865205     0.09500
H1903       H  0.50329059  0.40964925  0.78151336     0.09500
H1904       H  0.51907912  0.44691289  0.81711907     0.06300
C1905       C  0.61169678  0.16240884  0.78629308    -0.19500
C1906       C  0.56476147  0.12757441  0.80148439    -0.06100
C1907       C  0.54143845  0.07827960  0.79876117     0.14800
C1908       C  0.56324127  0.06482931  0.77856790    -0.19600
C1909       C  0.61109219  0.09933131  0.76428943    -0.06100
C1910       C  0.63569755  0.14901790  0.76843231     0.14800
C1911       C  0.68612792  0.18863660  0.75307030    -0.22900
H1912       H  0.62987883  0.20035822  0.78848939     0.16100
H1913       H  0.54102625  0.02691515  0.77320376     0.16100
C1914       C  0.49220674  0.03903130  0.81564234    -0.22900
H1915       H  0.71280046  0.21471062  0.77225431     0.06300
H1916       H  0.68257904  0.20820282  0.73565680     0.09500
H1917       H  0.70230552  0.17479941  0.73978861     0.09500
H1918       H  0.47840437  0.00246785  0.80913670     0.09500
H1919       H  0.46343978  0.04053732  0.80917416     0.09500
H1920       H  0.49683364  0.04289221  0.84230623     0.06300
N1921       N  0.66263273  0.57672815  0.24505286    -0.02700
C1922       C  0.62943989  0.58271798  0.23966559    -0.00100
C1923       C  0.60943283  0.56548956  0.20927868    -0.23000
C1924       C  0.63330442  0.55148267  0.19455759    -0.23200
C1925       C  0.67068472  0.56536882  0.21483034    -0.00200
H1926       H  0.58200713  0.56504868  0.19870763     0.13600
H1927       H  0.63015504  0.54002310  0.16949997     0.13600
N1928       N  0.53706558  0.67551249  0.30798317    -0.02700
C1929       C  0.54024232  0.64336404  0.31905545    -0.00100
C1930       C  0.52410479  0.63233018  0.35096891    -0.23000
C1931       C  0.51217844  0.65950391  0.36057465    -0.23200
C1932       C  0.52733127  0.69078502  0.33560351    -0.00200
H1933       H  0.52631102  0.61150288  0.36696509     0.13600
H1934       H  0.50600293  0.66450291  0.38579422     0.13600
N1935       N  0.88153667  0.60066037  0.22246216    -0.02700
C1936       C  0.86274518  0.61980641  0.21079977    -0.00100
C1937       C  0.81930714  0.60153998  0.22768105    -0.23000
C1938       C  0.80714249  0.56649713  0.24744916    -0.23200
C1939       C  0.84521704  0.56628171  0.24355701    -0.00200
H1940       H  0.79484700  0.60751454  0.22183930     0.13600
H1941       H  0.77297709  0.54186486  0.26162255     0.13600
N1942       N  0.93662779  0.84903010  0.19432552    -0.02700
C1943       C  0.92988618  0.88117346  0.19574330    -0.00100
C1944       C  0.89983376  0.87141163  0.17053441    -0.23000
C1945       C  0.88441370  0.82978830  0.15509426    -0.23200
C1946       C  0.90681717  0.81620284  0.17051896    -0.00200
H1947       H  0.88304935  0.88694473  0.16765055     0.13600
H1948       H  0.85559181  0.80886674  0.13697281     0.13600
N1949       N  0.82832694  0.92028166  0.30820983    -0.02700
C1950       C  0.86859836  0.92417722  0.31074489    -0.00100
C1951       C  0.86972317  0.91086915  0.34120735    -0.23000
C1952       C  0.82647247  0.89404796  0.35685844    -0.23200
C1953       C  0.80180033  0.90006835  0.33612302    -0.00200
H1954       H  0.89488166  0.90634710  0.34907931     0.13600
H1955       H  0.81289493  0.87608345  0.37983307     0.13600
N1956       N  0.60384480  0.91307513  0.30010681    -0.02700
C1957       C  0.63397742  0.90656806  0.31221973    -0.00100
C1958       C  0.63842440  0.88014334  0.28995592    -0.23000
C1959       C  0.60803206  0.86705853  0.26451540    -0.23200
C1960       C  0.58534110  0.88525462  0.27200810    -0.00200
H1961       H  0.65659402  0.86619179  0.29383315     0.13600
H1962       H  0.60156418  0.84495337  0.24343620     0.13600
Fe1963     Fe  0.58740841  0.82152002  0.39856052     1.65800
Fe1964     Fe  0.65615337  0.79251511  0.38072215     1.73200
Fe1965     Fe  0.71309016  0.91098205  0.38915071     1.54400
O1966       O  0.67614707  0.92627192  0.36208444    -0.80900
O1967       O  0.70316672  0.81791976  0.41822194    -0.79200
O1968       O  0.59603441  0.85636872  0.35741912    -0.83400
O1969       O  0.61473150  0.88272798  0.42762525    -0.78300
O1970       O  0.73963892  0.90532937  0.34567374    -0.80000
O1971       O  0.59531569  0.74406502  0.41240519    -0.82800
C1972       C  0.65332978  0.90780586  0.44521532     0.98000
C1973       C  0.63464705  0.89764005  0.34676413     1.05400
O1974       O  0.65307346  0.84250533  0.38907897    -1.11800
O1975       O  0.60959593  0.76617267  0.34173180    -0.74200
O1976       O  0.54954240  0.75620325  0.37044322    -0.77700
O1977       O  0.69469678  0.92223230  0.43422251    -0.78400
C1978       C  0.56353414  0.74192690  0.34796217     0.96900
O1979       O  0.58260546  0.78785989  0.44017456    -0.76300
O1980       O  0.71975974  0.83485391  0.35154050    -0.81500
C1981       C  0.74302821  0.86078749  0.42512415     0.99500
C1982       C  0.74997167  0.87853942  0.34261413     1.05400
O1983       O  0.75335974  0.89871221  0.41466522    -0.77200
C1984       C  0.58680747  0.75610798  0.43935657     1.03700
N1985       N  0.86477868  0.59193643  0.02487798    -0.02700
C1986       C  0.83923441  0.60320925  0.04118778    -0.00100
C1987       C  0.79796275  0.58612140  0.02335234    -0.23000
C1988       C  0.79543217  0.56074796  0.99700157    -0.23200
C1989       C  0.83567898  0.56367149  0.99886871    -0.00200
H1990       H  0.76837247  0.58574973  0.03126546     0.13600
H1991       H  0.76367011  0.53673671  0.98116731     0.13600
N1992       N  0.82073068  0.90486329  0.45856858    -0.02700
C1993       C  0.84678385  0.89290074  0.46880963    -0.00100
C1994       C  0.82147833  0.84471519  0.46014563    -0.23000
C1995       C  0.77938949  0.82706161  0.44429426    -0.23200
C1996       C  0.77989723  0.86466675  0.44347576    -0.00200
H1997       H  0.83246103  0.82425804  0.46429845     0.13600
H1998       H  0.75213144  0.79100149  0.43361581     0.13600
N1999       N  0.88136248  0.79007612  0.04115083    -0.03500
C2000       C  0.86664918  0.81014819  0.02562756    -0.00100
C2001       C  0.81555301  0.78210237  0.03027837    -0.23000
C2002       C  0.79917307  0.74474223  0.04984855    -0.23200
C2003       C  0.84057216  0.75066890  0.05651124    -0.00200
H2004       H  0.79358032  0.79083240  0.02316605     0.13600
H2005       H  0.76205456  0.71885449  0.06058878     0.13600
N2006       N  0.61136724  0.90956451  0.49395590    -0.02700
C2007       C  0.64732347  0.91002414  0.48080825    -0.00100
C2008       C  0.64468138  0.87537003  0.49564403    -0.23000
C2009       C  0.60055904  0.84661598  0.51293193    -0.23200
C2010       C  0.57995585  0.86700549  0.50996281    -0.00200
H2011       H  0.66516920  0.86426174  0.48801507     0.13600
H2012       H  0.58355187  0.81263160  0.52394318     0.13600
N2013       N  0.63154575  0.55920681  0.06583346    -0.02700
C2014       C  0.58949854  0.55334294  0.06457338    -0.00100
C2015       C  0.56752781  0.54258515  0.09516280    -0.23000
C2016       C  0.60443989  0.55849505  0.11627697    -0.23200
C2017       C  0.64387339  0.56956176  0.09775641    -0.00200
H2018       H  0.53469388  0.53756496  0.10180834     0.13600
H2019       H  0.60402797  0.56668407  0.14160477     0.13600
N2020       N  0.56520805  0.69495122  0.48038412    -0.02700
C2021       C  0.59892701  0.69279130  0.49234575    -0.00100
C2022       C  0.64658430  0.73752859  0.49203240    -0.23000
C2023       C  0.64333127  0.76835855  0.47876253    -0.23200
C2024       C  0.59434762  0.74152604  0.46971080    -0.00200
H2025       H  0.68011953  0.74686121  0.50107982     0.13600
H2026       H  0.67448970  0.80606932  0.47420822     0.13600
Fe2027     Fe  0.76663716  0.58246114  0.13542521     1.65800
Fe2028     Fe  0.78232487  0.68172511  0.15135232     1.73200
Fe2029     Fe  0.88090699  0.69300338  0.12347912     1.54400
O2030       O  0.89068362  0.67070637  0.16534881    -0.80900
O2031       O  0.81542565  0.72312052  0.10959949    -0.79200
O2032       O  0.82310743  0.59106015  0.15992090    -0.83400
O2033       O  0.79315007  0.58484448  0.08966447    -0.78300
O2034       O  0.90584703  0.75688610  0.14607739    -0.80000
O2035       O  0.71671517  0.63417381  0.12562404    -0.82800
C2036       C  0.83641349  0.60949731  0.07710590     0.98000
C2037       C  0.86125925  0.62750609  0.17595987     1.05400
O2038       O  0.80919922  0.65208897  0.13701636    -1.11800
O2039       O  0.74402501  0.63924900  0.19253377    -0.74200
O2040       O  0.72841422  0.57075549  0.17946956    -0.77700
O2041       O  0.87418013  0.64088982  0.09420997    -0.78400
C2042       C  0.71970380  0.59433847  0.19666696     0.96900
O2043       O  0.70953746  0.57099641  0.11086155    -0.76300
O2044       O  0.84401649  0.73268774  0.17960355    -0.81500
C2045       C  0.84141372  0.72811160  0.08472701     0.99500
C2046       C  0.88654829  0.76623072  0.16721733     1.05400
O2047       O  0.86676758  0.71483451  0.08373207    -0.77200
C2048       C  0.69352060  0.59322106  0.11140815     1.03700
C2049       C  0.58579051  0.58303237  0.01215310    -0.19500
C2050       C  0.58976355  0.58786796  0.04613839    -0.06100
C2051       C  0.59514489  0.62678212  0.06181609     0.14800
C2052       C  0.59050271  0.65468531  0.04368812    -0.19600
C2053       C  0.58903074  0.65231871  0.50895870    -0.06100
C2054       C  0.59182792  0.61928955  0.49270690     0.14800
C2055       C  0.59886592  0.61871680  0.45636323    -0.22900
H2056       H  0.58192319  0.55428027  0.99960979     0.16100
H2057       H  0.59348335  0.68333980  0.05571018     0.16100
C2058       C  0.61042876  0.64335992  0.09684656    -0.22900
H2059       H  0.63425737  0.62644596  0.45082334     0.06300
H2060       H  0.60096298  0.64614148  0.44414095     0.09500
H2061       H  0.56722189  0.58236018  0.44598457     0.09500
H2062       H  0.64445309  0.64925903  0.10163720     0.09500
H2063       H  0.57953168  0.61738755  0.11396522     0.09500
H2064       H  0.62025470  0.67854709  0.10240957     0.06300
C2065       C  0.62924773  0.95644371  0.04511892    -0.19500
C2066       C  0.62559248  0.95219058  0.01110932    -0.06100
C2067       C  0.63139959  0.98941778  0.49484948     0.14800
C2068       C  0.63864338  0.52710457  0.01346574    -0.19600
C2069       C  0.63339270  0.52527823  0.04774226    -0.06100
C2070       C  0.62558269  0.98716887  0.06311682     0.14800
C2071       C  0.60344151  0.97133174  0.09723358    -0.22900
H2072       H  0.62794082  0.93065403  0.05786270     0.16100
H2073       H  0.64805781  0.55673538  0.50036541     0.16100
C2074       C  0.62945594  0.98839051  0.45843046    -0.22900
H2075       H  0.59375547  0.93706078  0.10348628     0.06300
H2076       H  0.56869888  0.46396274  0.09987480     0.09500
H2077       H  0.62952834  0.49565716  0.11652510     0.09500
H2078       H  0.59289285  0.95394984  0.45003184     0.09500
H2079       H  0.66014729  0.99106679  0.44745722     0.09500
H2080       H  0.63458935  0.51779783  0.44921104     0.06300
C2081       C  0.93804856  0.78731762  0.00904405    -0.19500
C2082       C  0.92905508  0.80368258  0.03706057    -0.06100
C2083       C  0.96794084  0.83706107  0.05846637     0.14800
C2084       C  0.51666783  0.85385693  0.05004654    -0.19600
C2085       C  0.52729228  0.84254860  0.02004775    -0.06100
C2086       C  0.99045445  0.81193165  0.49852824     0.14800
C2087       C  0.99960441  0.79971439  0.46542561    -0.22900
H2088       H  0.90719646  0.76076546  0.99309595     0.16100
H2089       H  0.54545498  0.87609671  0.06773435     0.16100
C2090       C  0.95855917  0.85453801  0.08866139    -0.22900
H2091       H  0.96470240  0.77499082  0.45118660     0.06300
H2092       H  0.01426090  0.78140657  0.46811627     0.09500
H2093       H  0.02689975  0.83335508  0.45160517     0.09500
H2094       H  0.93049737  0.82313686  0.10399814     0.09500
H2095       H  0.94426497  0.87226059  0.08224936     0.09500
H2096       H  0.49398713  0.87998346  0.10208551     0.06300
C2097       C  0.92722773  0.91737761  0.47144450    -0.19500
C2098       C  0.89617893  0.92490817  0.48528307    -0.06100
C2099       C  0.89327664  0.92342235  0.01816113     0.14800
C2100       C  0.89173822  0.88989704  0.03428691    -0.19600
C2101       C  0.89948484  0.86181316  0.01640393    -0.06100
C2102       C  0.92400954  0.87902302  0.98554830     0.14800
C2103       C  0.94232412  0.86022854  0.46485820    -0.22900
H2104       H  0.93820818  0.92588334  0.44607381     0.16100
H2105       H  0.87967753  0.88235264  0.05957933     0.16100
C2106       C  0.89206668  0.95816713  0.03730125    -0.22900
H2107       H  0.95461839  0.87535615  0.44010010     0.06300
H2108       H  0.91094121  0.82056202  0.46201992     0.09500
H2109       H  0.97498821  0.86898626  0.47630166     0.09500
H2110       H  0.85815983  0.93813667  0.05312086     0.09500
H2111       H  0.89313271  0.98186291  0.02103709     0.09500
H2112       H  0.92541024  0.98161894  0.05303295     0.06300
C2113       C  0.93495032  0.59441591  0.01385374    -0.19500
C2114       C  0.91873828  0.61947138  0.02302988    -0.06100
C2115       C  0.95430029  0.67061513  0.01987922     0.14800
C2116       C  0.99911215  0.69273584  0.50501824    -0.19600
C2117       C  0.51434850  0.66802646  0.49360114    -0.06100
C2118       C  0.47840358  0.61623690  0.99752149     0.14800
C2119       C  0.48311710  0.58350968  0.97878250    -0.22900
H2120       H  0.90941119  0.55566554  0.01679254     0.16100
H2121       H  0.52707794  0.73280877  0.50500178     0.16100
C2122       C  0.94274220  0.70186716  0.03022769    -0.22900
H2123       H  0.95062707  0.55670843  0.96293187     0.06300
H2124       H  0.48674853  0.56352611  0.99568212     0.09500
H2125       H  0.51581770  0.60491813  0.46069314     0.09500
H2126       H  0.93435526  0.69896825  0.05649852     0.09500
H2127       H  0.91129436  0.69203167  0.01607984     0.09500
H2128       H  0.97572167  0.74051850  0.02668617     0.06300
C2129       C  0.80221807  0.97884556  0.00551120    -0.19500
C2130       C  0.83090822  0.52275560  0.98630617    -0.06100
C2131       C  0.85210111  0.52238163  0.45675277     0.14800
C2132       C  0.85145408  0.98553398  0.44857339    -0.19600
C2133       C  0.82618581  0.94567667  0.46887571    -0.06100
C2134       C  0.79992276  0.94044614  0.99668958     0.14800
C2135       C  0.76865990  0.89637174  0.01764072    -0.22900
H2136       H  0.78328344  0.97684359  0.02764735     0.16100
H2137       H  0.86885544  0.98580974  0.42621007     0.16100
C2138       C  0.87756111  0.56445078  0.43451903    -0.22900
H2139       H  0.77996835  0.90728592  0.04337312     0.06300
H2140       H  0.72878432  0.87860331  0.01643465     0.09500
H2141       H  0.77192802  0.86927871  0.01027230     0.09500
H2142       H  0.90813679  0.59880756  0.44745133     0.09500
H2143       H  0.84990935  0.56667542  0.42648400     0.09500
H2144       H  0.89393411  0.56042364  0.41256948     0.06300
C2145       C  0.88887190  0.85988371  0.24875338    -0.19500
C2146       C  0.92308695  0.89694258  0.22719017    -0.06100
C2147       C  0.94004635  0.94368785  0.23312804     0.14800
C2148       C  0.92260010  0.95241748  0.26098204    -0.19600
C2149       C  0.88829513  0.91508007  0.28249678    -0.06100
C2150       C  0.87033256  0.86783695  0.27587381     0.14800
C2151       C  0.82899000  0.82455222  0.29575359    -0.22900
H2152       H  0.87373555  0.82338150  0.24305294     0.16100
H2153       H  0.93467652  0.98794270  0.26550296     0.16100
C2154       C  0.97598213  0.98382690  0.21001702    -0.22900
H2155       H  0.81652248  0.79002626  0.28474400     0.06300
H2156       H  0.79589760  0.82153206  0.29728071     0.09500
H2157       H  0.84207206  0.82782536  0.32049681     0.09500
H2158       H  0.95846108  0.97494540  0.18597934     0.09500
H2159       H  0.00966399  0.98810071  0.20709166     0.09500
H2160       H  0.98775425  0.01884821  0.21918228     0.06300
C2161       C  0.96041188  0.82521171  0.23840036    -0.19500
C2162       C  0.97424018  0.85464305  0.21203215    -0.06100
C2163       C  0.02570998  0.89296691  0.20496070     0.14800
C2164       C  0.56069854  0.90359906  0.22417858    -0.19600
C2165       C  0.54594563  0.87482829  0.25115832    -0.06100
C2166       C  0.99677155  0.83466749  0.25880965     0.14800
C2167       C  0.97845270  0.80392549  0.28829027    -0.22900
H2168       H  0.92101257  0.79605908  0.24392474     0.16100
H2169       H  0.60031380  0.93296020  0.21926227     0.16100
C2170       C  0.04226251  0.92415471  0.17604094    -0.22900
H2171       H  0.95450157  0.80734119  0.30363890     0.06300
H2172       H  0.00938602  0.81469317  0.30351951     0.09500
H2173       H  0.95555330  0.76531481  0.28053322     0.09500
H2174       H  0.02880212  0.94390432  0.17844367     0.09500
H2175       H  0.02699349  0.90090197  0.15370578     0.09500
H2176       H  0.58409799  0.95463534  0.17320962     0.06300
C2177       C  0.82094795  0.98513228  0.24491925    -0.19500
C2178       C  0.84324321  0.52998370  0.25937709    -0.06100
C2179       C  0.85601702  0.53552415  0.29226336     0.14800
C2180       C  0.85374563  0.00016946  0.30833307    -0.19600
C2181       C  0.83180222  0.95598354  0.29192664    -0.06100
C2182       C  0.81476130  0.94807030  0.26005938     0.14800
C2183       C  0.78945910  0.90034701  0.24250408    -0.22900
H2184       H  0.80777173  0.97931200  0.22039299     0.16100
H2185       H  0.86628605  0.00558083  0.33300100     0.16100
C2186       C  0.87613030  0.58046148  0.31208282    -0.22900
H2187       H  0.77714915  0.89953652  0.21798733     0.06300
H2188       H  0.75600058  0.87061270  0.25672587     0.09500
H2189       H  0.81561939  0.89386266  0.23948615     0.09500
H2190       H  0.84866864  0.58541258  0.31278647     0.09500
H2191       H  0.91175710  0.61255662  0.30124426     0.09500
H2192       H  0.88351099  0.57832281  0.33752560     0.06300
C2193       C  0.95783412  0.67543572  0.24801267    -0.19500
C2194       C  0.93344041  0.63026612  0.23206900    -0.06100
C2195       C  0.95546791  0.60992526  0.23366759     0.14800
C2196       C  0.99316134  0.62858738  0.25642455    -0.19600
C2197       C  0.51261041  0.66666960  0.27695907    -0.06100
C2198       C  0.50274494  0.69601204  0.26758928     0.14800
C2199       C  0.53381489  0.74730656  0.27957085    -0.22900
H2200       H  0.94331843  0.69325961  0.24576923     0.16100
H2201       H  0.00504962  0.60869518  0.25864594     0.16100
C2202       C  0.93798427  0.56696955  0.21251832    -0.22900
H2203       H  0.53629801  0.76875666  0.26037193     0.06300
H2204       H  0.57269209  0.76353134  0.28411046     0.09500
H2205       H  0.51656696  0.74911906  0.30194052     0.09500
H2206       H  0.90818205  0.55561921  0.19575194     0.09500
H2207       H  0.92340368  0.53604011  0.22790929     0.09500
H2208       H  0.96997446  0.57654188  0.19753588     0.06300
C2209       C  0.66844736  0.00342774  0.29990056    -0.19500
C2210       C  0.61735263  0.96007439  0.30094982    -0.06100
C2211       C  0.58200257  0.96318178  0.29224677     0.14800
C2212       C  0.59736694  0.00023330  0.27202665    -0.19600
C2213       C  0.64937716  0.54367820  0.27057645    -0.06100
C2214       C  0.68561539  0.54658679  0.28623983     0.14800
C2215       C  0.73884509  0.59358331  0.28745837    -0.22900
H2216       H  0.69680976  0.00358070  0.30833038     0.16100
H2217       H  0.56974574  0.49518023  0.26212119     0.16100
C2218       C  0.52815608  0.92749547  0.30321579    -0.22900
H2219       H  0.76335848  0.58975936  0.29925099     0.06300
H2220       H  0.74038974  0.62088275  0.30169899     0.09500
H2221       H  0.75322143  0.60724192  0.26272158     0.09500
H2222       H  0.52111985  0.90018569  0.31917415     0.09500
H2223       H  0.50297962  0.90963607  0.28208027     0.09500
H2224       H  0.51914646  0.94720741  0.31758231     0.06300
C2225       C  0.61194222  0.66257146  0.28624262    -0.19500
C2226       C  0.56490609  0.62776590  0.30132114    -0.06100
C2227       C  0.54136652  0.57842022  0.29844168     0.14800
C2228       C  0.56290932  0.56491373  0.27801925    -0.19600
C2229       C  0.61087870  0.59934955  0.26388412    -0.06100
C2230       C  0.63580932  0.64909076  0.26830877     0.14800
C2231       C  0.68645944  0.68868536  0.25318574    -0.22900
H2232       H  0.63033056  0.70056780  0.28861907     0.16100
H2233       H  0.54041085  0.52695119  0.27239929     0.16100
C2234       C  0.49224527  0.53926684  0.31546141    -0.22900
H2235       H  0.71306612  0.71432815  0.27253302     0.06300
H2236       H  0.68335095  0.70876189  0.23596264     0.09500
H2237       H  0.70244685  0.67476283  0.23974431     0.09500
H2238       H  0.47837352  0.50267252  0.30896949     0.09500
H2239       H  0.46346150  0.54081082  0.30913092     0.09500
H2240       H  0.49708294  0.54321762  0.34210724     0.06300
N2241       N  0.66340501  0.57806313  0.74468801    -0.02700
C2242       C  0.63097608  0.58512231  0.73957818    -0.00100
C2243       C  0.61208493  0.56992606  0.70878388    -0.23000
C2244       C  0.63567825  0.55581116  0.69374609    -0.23200
C2245       C  0.67207761  0.56801737  0.71420691    -0.00200
H2246       H  0.58534523  0.57053229  0.69825571     0.13600
H2247       H  0.63305448  0.54508525  0.66860599     0.13600
N2248       N  0.53502875  0.67448281  0.80832450    -0.02700
C2249       C  0.53921972  0.64300821  0.81932585    -0.00100
C2250       C  0.52354547  0.63215954  0.85134090    -0.23000
C2251       C  0.51068855  0.65855458  0.86094656    -0.23200
C2252       C  0.52541156  0.68974242  0.83601010    -0.00200
H2253       H  0.52692204  0.61238444  0.86752145     0.13600
H2254       H  0.50473133  0.66357913  0.88621842     0.13600
N2255       N  0.88231272  0.59921407  0.72274981    -0.02700
C2256       C  0.86446601  0.61944415  0.71117661    -0.00100
C2257       C  0.82216597  0.60312661  0.72887204    -0.23000
C2258       C  0.80982855  0.56851924  0.74925486    -0.23200
C2259       C  0.84640238  0.56621132  0.74471032    -0.00200
H2260       H  0.79847522  0.61036246  0.72360816     0.13600
H2261       H  0.77650290  0.54564388  0.76444581     0.13600
N2262       N  0.93809017  0.85120200  0.69302845    -0.02700
C2263       C  0.93058646  0.88276947  0.69350862    -0.00100
C2264       C  0.90122380  0.87233518  0.66763773    -0.23000
C2265       C  0.88678030  0.83074529  0.65282839    -0.23200
C2266       C  0.90904937  0.81775282  0.66927046    -0.00200
H2267       H  0.88397274  0.88720964  0.66388086     0.13600
H2268       H  0.85845367  0.80941054  0.63445984     0.13600
N2269       N  0.82519298  0.91850085  0.80598790    -0.02700
C2270       C  0.86650631  0.92400917  0.80815312    -0.00100
C2271       C  0.86947997  0.91239947  0.83874563    -0.23000
C2272       C  0.82626896  0.89469453  0.85490646    -0.23200
C2273       C  0.79983727  0.89867929  0.83432091    -0.00200
H2274       H  0.89620353  0.90989230  0.84655605     0.13600
H2275       H  0.81420179  0.87803426  0.87833258     0.13600
N2276       N  0.60498078  0.91394674  0.80198566    -0.02700
C2277       C  0.63411285  0.90606518  0.81370398    -0.00100
C2278       C  0.63669858  0.87841898  0.79133991    -0.23000
C2279       C  0.60596582  0.86594098  0.76628079    -0.23200
C2280       C  0.58527669  0.88607235  0.77399771    -0.00200
H2281       H  0.65356818  0.86312660  0.79503370     0.13600
H2282       H  0.59772889  0.84278434  0.74543117     0.13600
Fe2283     Fe  0.58703897  0.82038125  0.89955034     1.65800
Fe2284     Fe  0.65542605  0.79126491  0.88083846     1.73200
Fe2285     Fe  0.71255083  0.90975528  0.88992270     1.54400
O2286       O  0.67540113  0.92546289  0.86384224    -0.80900
O2287       O  0.70320225  0.81672221  0.91790103    -0.79200
O2288       O  0.59570891  0.85524930  0.85849492    -0.83400
O2289       O  0.61484879  0.88175443  0.92855239    -0.78300
O2290       O  0.73840387  0.90438682  0.84594592    -0.80000
O2291       O  0.59522247  0.74294842  0.91302273    -0.82800
C2292       C  0.65319952  0.90624492  0.94633225     0.98000
C2293       C  0.63434593  0.89673255  0.84813826     1.05400
O2294       O  0.65253227  0.84125243  0.88971623    -1.11800
O2295       O  0.60809043  0.76475757  0.84217213    -0.74200
O2296       O  0.54859414  0.75505479  0.87142362    -0.77700
O2297       O  0.69449373  0.92036243  0.93542996    -0.78400
C2298       C  0.56212139  0.74078615  0.84858250     0.96900
O2299       O  0.58253767  0.78666774  0.94103054    -0.76300
O2300       O  0.71843418  0.83368301  0.85108293    -0.81500
C2301       C  0.74321041  0.85959448  0.92461056     0.99500
C2302       C  0.74833528  0.87731919  0.84201485     1.05400
O2303       O  0.75329862  0.89749908  0.91447692    -0.77200
C2304       C  0.58683575  0.75497115  0.94006767     1.03700
N2305       N  0.86217960  0.58953047  0.52445220    -0.02700
C2306       C  0.83633342  0.60009032  0.54129565    -0.00100
C2307       C  0.79387623  0.58144052  0.52425198    -0.23000
C2308       C  0.79118517  0.55604643  0.49783745    -0.23200
C2309       C  0.83243270  0.56040087  0.49887865    -0.00200
H2310       H  0.76403459  0.58045924  0.53264264     0.13600
H2311       H  0.75896797  0.53127686  0.48246621     0.13600
N2312       N  0.82120192  0.90359426  0.95762342    -0.02700
C2313       C  0.84803807  0.89201532  0.96682692    -0.00100
C2314       C  0.82330658  0.84419503  0.95725115    -0.23000
C2315       C  0.78096196  0.82650554  0.94180297    -0.23200
C2316       C  0.78063308  0.86361454  0.94219242    -0.00200
H2317       H  0.83450312  0.82377355  0.96075960     0.13600
H2318       H  0.75399211  0.79072754  0.93067081     0.13600
N2319       N  0.88603855  0.79390078  0.54145590    -0.03500
C2320       C  0.87104962  0.81358775  0.52568525    -0.00100
C2321       C  0.81975348  0.78474916  0.52969864    -0.23000
C2322       C  0.80337230  0.74696212  0.54876445    -0.23200
C2323       C  0.84497637  0.75348252  0.55592258    -0.00200
H2324       H  0.79744763  0.79303578  0.52247209     0.13600
H2325       H  0.76595176  0.72028162  0.55889866     0.13600
N2326       N  0.61120763  0.90854633  0.99481834    -0.02700
C2327       C  0.64679966  0.90829618  0.98189466    -0.00100
C2328       C  0.64335169  0.87325308  0.99689221    -0.23000
C2329       C  0.59928411  0.84523409  0.01427333    -0.23200
C2330       C  0.57939459  0.86627292  0.01109552    -0.00200
H2331       H  0.66323630  0.86144216  0.98939652     0.13600
H2332       H  0.58173389  0.81120093  0.02541492     0.13600
N2333       N  0.63387252  0.56117496  0.56476940    -0.02700
C2334       C  0.59199320  0.55564628  0.56332892    -0.00100
C2335       C  0.56973540  0.54469505  0.59380270    -0.23000
C2336       C  0.60660704  0.56097863  0.61504582    -0.23200
C2337       C  0.64611424  0.57182418  0.59673900    -0.00200
H2338       H  0.53666497  0.53933745  0.60025868     0.13600
H2339       H  0.60599810  0.56955081  0.64025200     0.13600
N2340       N  0.56494293  0.69381326  0.98130003    -0.02700
C2341       C  0.59832473  0.69108133  0.99308611    -0.00100
C2342       C  0.64630396  0.73542510  0.99234039    -0.23000
C2343       C  0.64356552  0.76656894  0.97897119    -0.23200
C2344       C  0.59448839  0.74030468  0.97035606    -0.00200
H2345       H  0.67971899  0.74429546  0.00115956     0.13600
H2346       H  0.67505685  0.80407231  0.97407762     0.13600
Fe2347     Fe  0.76769680  0.58344223  0.63634666     1.65800
Fe2348     Fe  0.78459729  0.68388987  0.65022693     1.73200
Fe2349     Fe  0.88264293  0.69347484  0.62346451     1.54400
O2350       O  0.89191141  0.67032360  0.66543370    -0.80900
O2351       O  0.81892545  0.72556048  0.60880945    -0.79200
O2352       O  0.82376429  0.59100894  0.66051727    -0.83400
O2353       O  0.79299570  0.58443952  0.59055029    -0.78300
O2354       O  0.90836435  0.75760855  0.64658417    -0.80000
O2355       O  0.71993178  0.63721619  0.62350314    -0.82800
C2356       C  0.83568936  0.60859639  0.57716693     0.98000
C2357       C  0.86242500  0.62719972  0.67626726     1.05400
O2358       O  0.81094980  0.65333209  0.63692274    -1.11800
O2359       O  0.74463821  0.64134049  0.69115256    -0.74200
O2360       O  0.73129479  0.57345402  0.68078759    -0.77700
O2361       O  0.87446732  0.64092148  0.59335558    -0.78400
C2362       C  0.72151812  0.59701519  0.69663748     0.96900
O2363       O  0.71007326  0.57177201  0.61214811    -0.76300
O2364       O  0.84575509  0.73438013  0.67901054    -0.81500
C2365       C  0.84515948  0.73048287  0.58420542     0.99500
C2366       C  0.88872890  0.76757881  0.66695332     1.05400
O2367       O  0.86997491  0.71665041  0.58356666    -0.77200
C2368       C  0.69557699  0.59521729  0.61072785     1.03700
C2369       C  0.58961133  0.58649074  0.51090638    -0.19500
C2370       C  0.59241583  0.59044683  0.54497175    -0.06100
C2371       C  0.59591818  0.62826011  0.56082531     0.14800
C2372       C  0.59068568  0.65576303  0.54272163    -0.19600
C2373       C  0.58786660  0.65049840  0.00994608    -0.06100
C2374       C  0.58904132  0.61631799  0.99380478     0.14800
C2375       C  0.59561762  0.61506802  0.95745525    -0.22900
H2376       H  0.58708022  0.55860768  0.49819206     0.16100
H2377       H  0.59231511  0.68356461  0.55485303     0.16100
C2378       C  0.60977830  0.64424952  0.59609518    -0.22900
H2379       H  0.63022023  0.62135596  0.95187502     0.06300
H2380       H  0.59897321  0.64315822  0.94509841     0.09500
H2381       H  0.56317385  0.57894532  0.94725683     0.09500
H2382       H  0.64403776  0.65084533  0.60145949     0.09500
H2383       H  0.57847397  0.61768601  0.61278316     0.09500
H2384       H  0.61864425  0.67897233  0.60174505     0.06300
C2385       C  0.62925032  0.95651626  0.54473848    -0.19500
C2386       C  0.62533460  0.95275107  0.51074599    -0.06100
C2387       C  0.63209318  0.98876428  0.99470051     0.14800
C2388       C  0.64014388  0.52727336  0.51298603    -0.19600
C2389       C  0.63487356  0.52627598  0.54726839    -0.06100
C2390       C  0.62512186  0.98655196  0.56327457     0.14800
C2391       C  0.60375436  0.97035471  0.59751606    -0.22900
H2392       H  0.62874617  0.93095944  0.55705338     0.16100
H2393       H  0.64610995  0.55666048  0.00130998     0.16100
C2394       C  0.62951959  0.98671387  0.95827801    -0.22900
H2395       H  0.59444870  0.93613799  0.60333935     0.06300
H2396       H  0.56845519  0.46527201  0.59914054     0.09500
H2397       H  0.62890835  0.49713571  0.61654680     0.09500
H2398       H  0.59262901  0.95223546  0.95031963     0.09500
H2399       H  0.65975150  0.98867411  0.94729657     0.09500
H2400       H  0.63417504  0.51956395  0.94961940     0.06300
C2401       C  0.94199431  0.79202345  0.50754008    -0.19500
C2402       C  0.93328849  0.80675439  0.53660142    -0.06100
C2403       C  0.97160639  0.83637107  0.55911312     0.14800
C2404       C  0.51814734  0.85367665  0.55027900    -0.19600
C2405       C  0.52805353  0.84309054  0.51968493    -0.06100
C2406       C  0.98693997  0.80854891  0.99987266     0.14800
C2407       C  0.99611981  0.79440968  0.96758577    -0.22900
H2408       H  0.91135160  0.76758263  0.49096655     0.16100
H2409       H  0.54720019  0.87495935  0.56788674     0.16100
C2410       C  0.96277780  0.85266936  0.59017773    -0.22900
H2411       H  0.96083565  0.76702457  0.95412410     0.06300
H2412       H  0.01315987  0.77860181  0.97146052     0.09500
H2413       H  0.02156790  0.82683481  0.95235273     0.09500
H2414       H  0.93230320  0.82043502  0.60397648     0.09500
H2415       H  0.95206562  0.87393049  0.58489550     0.09500
H2416       H  0.49724122  0.87987809  0.60314492     0.06300
C2417       C  0.92774281  0.91535035  0.97129434    -0.19500
C2418       C  0.89686496  0.92369446  0.98401136    -0.06100
C2419       C  0.89394710  0.92475191  0.51948985     0.14800
C2420       C  0.89526918  0.89276620  0.53517378    -0.19600
C2421       C  0.90332326  0.86531940  0.51669157    -0.06100
C2422       C  0.92578769  0.88224293  0.48531389     0.14800
C2423       C  0.94027227  0.85622591  0.96585180    -0.22900
H2424       H  0.94034153  0.92430522  0.94617908     0.16100
H2425       H  0.88432254  0.88521740  0.56063380     0.16100
C2426       C  0.88983312  0.95715937  0.53920598    -0.22900
H2427       H  0.95304732  0.87090802  0.94099023     0.06300
H2428       H  0.90871338  0.81654447  0.96325943     0.09500
H2429       H  0.97262968  0.86500968  0.97776364     0.09500
H2430       H  0.85593010  0.93520821  0.55504695     0.09500
H2431       H  0.88883759  0.97989262  0.52338958     0.09500
H2432       H  0.92306087  0.98173820  0.55493143     0.06300
C2433       C  0.93337579  0.59359805  0.51326432    -0.19500
C2434       C  0.91622214  0.61791573  0.52199427    -0.06100
C2435       C  0.95059857  0.66882251  0.51791675     0.14800
C2436       C  0.00209583  0.69364271  0.00601409    -0.19600
C2437       C  0.51417743  0.66725622  0.99459236    -0.06100
C2438       C  0.47893703  0.61701203  0.49664571     0.14800
C2439       C  0.48422282  0.58444561  0.47829358    -0.22900
H2440       H  0.90831979  0.55488787  0.51627080     0.16100
H2441       H  0.52761756  0.73230566  0.00615303     0.16100
C2442       C  0.93639739  0.69856913  0.52533896    -0.22900
H2443       H  0.95037533  0.55754976  0.46185220     0.06300
H2444       H  0.48823111  0.56500829  0.49547414     0.09500
H2445       H  0.51464188  0.60399433  0.96114277     0.09500
H2446       H  0.92610357  0.69653316  0.55120971     0.09500
H2447       H  0.90533489  0.68663934  0.50963118     0.09500
H2448       H  0.96860229  0.73717881  0.52126998     0.06300
C2449       C  0.80347369  0.98200814  0.50537306    -0.19500
C2450       C  0.82878224  0.52018754  0.48607804    -0.06100
C2451       C  0.85362708  0.52408470  0.95693971     0.14800
C2452       C  0.85125216  0.98426598  0.94867892    -0.19600
C2453       C  0.82625983  0.94401891  0.96857984    -0.06100
C2454       C  0.80032138  0.94302624  0.49694248     0.14800
C2455       C  0.76897693  0.89950867  0.51840373    -0.22900
H2456       H  0.78498420  0.98076337  0.52750632     0.16100
H2457       H  0.86902466  0.98526512  0.92626998     0.16100
C2458       C  0.87997912  0.56617775  0.93460994    -0.22900
H2459       H  0.78068853  0.91107146  0.54402677     0.06300
H2460       H  0.72919430  0.88206107  0.51733001     0.09500
H2461       H  0.77172833  0.87195695  0.51144784     0.09500
H2462       H  0.91114889  0.60029796  0.94746578     0.09500
H2463       H  0.85308821  0.56943804  0.92661298     0.09500
H2464       H  0.89572753  0.56140347  0.91264429     0.06300
C2465       C  0.89016004  0.86187402  0.74673980    -0.19500
C2466       C  0.92254681  0.89851225  0.72449358    -0.06100
C2467       C  0.93671916  0.94424101  0.72954049     0.14800
C2468       C  0.91855561  0.95237708  0.75730130    -0.19600
C2469       C  0.88668081  0.91561975  0.77976095    -0.06100
C2470       C  0.87140778  0.86934718  0.77395483     0.14800
C2471       C  0.83260617  0.82631297  0.79487648    -0.22900
H2472       H  0.87660615  0.82585313  0.74162701     0.16100
H2473       H  0.92834238  0.98696908  0.76113133     0.16100
C2474       C  0.97033912  0.98387972  0.70560828    -0.22900
H2475       H  0.82170799  0.79217947  0.78440059     0.06300
H2476       H  0.79816818  0.82103779  0.79697538     0.09500
H2477       H  0.84748476  0.83160730  0.81934445     0.09500
H2478       H  0.95137203  0.97345109  0.68198296     0.09500
H2479       H  0.00497402  0.98993119  0.70191164     0.09500
H2480       H  0.98096228  0.01849685  0.71447829     0.06300
C2481       C  0.95993478  0.82733583  0.73835531    -0.19500
C2482       C  0.97494421  0.85733383  0.71211837    -0.06100
C2483       C  0.02665617  0.89638755  0.70632741     0.14800
C2484       C  0.56071362  0.90444019  0.72619000    -0.19600
C2485       C  0.54594569  0.87664466  0.75373462    -0.06100
C2486       C  0.99534367  0.83671877  0.75972486     0.14800
C2487       C  0.97699876  0.80501044  0.78863322    -0.22900
H2488       H  0.92035427  0.79744681  0.74266636     0.16100
H2489       H  0.60034572  0.93329636  0.72097560     0.16100
C2490       C  0.04456221  0.92866799  0.67788943    -0.22900
H2491       H  0.93547074  0.77692700  0.78985949     0.06300
H2492       H  0.99006013  0.82680528  0.81158134     0.09500
H2493       H  0.99138996  0.78637783  0.78699630     0.09500
H2494       H  0.03131346  0.94859863  0.68038651     0.09500
H2495       H  0.03008299  0.90631104  0.65519778     0.09500
H2496       H  0.58415163  0.95260215  0.67361824     0.06300
C2497       C  0.82089082  0.98519648  0.74256064    -0.19500
C2498       C  0.84395898  0.52991125  0.76126672    -0.06100
C2499       C  0.85924569  0.53711247  0.79371721     0.14800
C2500       C  0.84894464  0.99758104  0.80699364    -0.19600
C2501       C  0.82783209  0.95392396  0.79011697    -0.06100
C2502       C  0.81299612  0.94725830  0.75774338     0.14800
C2503       C  0.78779599  0.89981498  0.73978212    -0.22900
H2504       H  0.80911014  0.98026994  0.71772347     0.16100
H2505       H  0.86010093  0.00215908  0.83195905     0.16100
C2506       C  0.87927881  0.58234540  0.81310386    -0.22900
H2507       H  0.77760126  0.90019740  0.71479847     0.06300
H2508       H  0.75302471  0.87014030  0.75309863     0.09500
H2509       H  0.81305940  0.89219476  0.73781385     0.09500
H2510       H  0.85041570  0.58545448  0.81516693     0.09500
H2511       H  0.91310117  0.61470786  0.80104017     0.09500
H2512       H  0.88954535  0.58195957  0.83807111     0.06300
C2513       C  0.96188920  0.67434794  0.74541240    -0.19500
C2514       C  0.93448221  0.62745438  0.73143366    -0.06100
C2515       C  0.95372779  0.60466815  0.73500887     0.14800
C2516       C  0.98993863  0.62229838  0.75874814    -0.19600
C2517       C  0.50994429  0.66474953  0.77741569    -0.06100
C2518       C  0.49985085  0.69371230  0.76738407     0.14800
C2519       C  0.52918114  0.74461088  0.77991591    -0.22900
H2520       H  0.95013514  0.69429304  0.74144828     0.16100
H2521       H  0.99850423  0.60005632  0.76330895     0.16100
C2522       C  0.93509684  0.56056198  0.71483026    -0.22900
H2523       H  0.52846384  0.76547253  0.76195284     0.06300
H2524       H  0.56903186  0.76273016  0.78284988     0.09500
H2525       H  0.51266411  0.74488972  0.80327797     0.09500
H2526       H  0.90600530  0.54970880  0.69756895     0.09500
H2527       H  0.91949015  0.52985647  0.73080843     0.09500
H2528       H  0.96684035  0.56865064  0.70044620     0.06300
C2529       C  0.67091111  0.00406203  0.80054999    -0.19500
C2530       C  0.61966937  0.96141510  0.80327063    -0.06100
C2531       C  0.58435311  0.96521061  0.79629687     0.14800
C2532       C  0.59864383  0.00160692  0.77585991    -0.19600
C2533       C  0.64843804  0.54296212  0.76899893    -0.06100
C2534       C  0.68363250  0.54586157  0.78617604     0.14800
C2535       C  0.73656854  0.59309051  0.78885844    -0.22900
H2536       H  0.69944508  0.00376175  0.80783596     0.16100
H2537       H  0.56991842  0.49390286  0.75665620     0.16100
C2538       C  0.53139662  0.93044641  0.80899501    -0.22900
H2539       H  0.76014617  0.58933867  0.80214733     0.06300
H2540       H  0.73679875  0.62007527  0.80229980     0.09500
H2541       H  0.75302688  0.60695787  0.76440741     0.09500
H2542       H  0.52575771  0.90442893  0.82558541     0.09500
H2543       H  0.50459666  0.91114572  0.78873838     0.09500
H2544       H  0.52353210  0.95113116  0.82329654     0.06300
C2545       C  0.60857045  0.66293620  0.78316625    -0.19500
C2546       C  0.56472244  0.62835222  0.80135926    -0.06100
C2547       C  0.54496686  0.58009158  0.80106556     0.14800
C2548       C  0.56829335  0.56757435  0.78169469    -0.19600
C2549       C  0.61279831  0.60196922  0.76399020    -0.06100
C2550       C  0.63307534  0.65051762  0.76479876     0.14800
C2551       C  0.67954827  0.68978579  0.74569470    -0.22900
H2552       H  0.62379673  0.69997686  0.78318655     0.16100
H2553       H  0.54952590  0.52984896  0.77978396     0.16100
C2554       C  0.49758050  0.54049164  0.81947871    -0.22900
H2555       H  0.70805744  0.71975922  0.76253322     0.06300
H2556       H  0.67018920  0.70421335  0.72784730     0.09500
H2557       H  0.69658143  0.67692107  0.73224255     0.09500
H2558       H  0.48475311  0.50419990  0.81325231     0.09500
H2559       H  0.46702829  0.53985080  0.81390133     0.09500
H2560       H  0.50423134  0.54571062  0.84593123     0.06300
loop_ 
_geom_bond_atom_site_label_1 
_geom_bond_atom_site_label_2 
_geom_bond_distance 
_geom_bond_site_symmetry_2 
_ccdc_geom_bond_type 
N1            C5   1.371       .  A
N1            C2   1.372       .  A
N1          C293   1.458       .  S
C2            C3   1.372       .  A
C2          C309   1.494       .  S
C3            C4   1.367       .  A
C3            H6   1.081       .  S
C4            C5   1.375       .  A
C4            H7   1.076       .  S
C5          C122   1.498       .  S
N8           C12   1.376       .  A
N8            C9   1.367       .  A
N8          C277   1.478       .  S
C9           C10   1.378       .  A
C9          C306   1.492       .  S
C10          C11   1.363       .  A
C10          H13   1.079       .  S
C11          C12   1.386       .  A
C11          H14   1.084       .  S
C12          C58   1.493       .  S
N15          C19   1.367       .  A
N15          C16   1.371       .  A
N15         C274   1.459       .  S
C16          C17   1.382       .  A
C16         C117   1.487       .  S
C17          C18   1.361       .  A
C17          H20   1.075       .  S
C18          C19   1.368       .  A
C18          H21   1.081       .  S
C19         C258   1.478       .  S
N22          C26   1.352       .  A
N22          C23   1.356       .  A
N22         C242   1.444       .  S
C23          C24   1.381       .  A
C23         C226   1.468       .  S
C24          C25   1.370       .  A
C24          H27   1.083       .  S
C25          C26   1.382       .  A
C25          H28   1.081       .  S
C26         C126   1.471       .  S
N29          C33   1.349       .  A
N29          C30   1.355       .  A
N29         C261   1.434       .  S
C30          C31   1.381       .  A
C30         C229   1.469       .  S
C31          C32   1.365       .  A
C31          H34   1.083       .  S
C32          C33   1.380       .  A
C32          H35   1.079       .  S
C33          C62   1.466       .  S
N36          C40   1.370       .  A
N36          C37   1.367       .  A
N36         C290   1.459       .  S
C37          C38   1.386       .  A
C37          C53   1.478       .  S
C38          C39   1.365       .  A
C38          H41   1.083       .  S
C39          C40   1.372       .  A
C39          H42   1.081       .  S
C40         C245   1.487       .  S
Fe43         O59   2.104       .  S
Fe43         O49   2.097       .  S
Fe43         O56   2.126       .  S
Fe43         O48   2.066       .  S
Fe43         O54   1.944       .  S
Fe44         O47   2.019       .  S
Fe44         O51   2.105       .  S
Fe44         O55   2.061       .  S
Fe44         O60   2.067       .  S
Fe44         O54   1.934       .  S
Fe45         O63   2.096       .  S
Fe45         O50   2.054       .  S
Fe45         O57   2.054       .  S
Fe45         O46   2.112       .  S
Fe45         O54   1.949       .  S
O46          C53   1.283       .  A
O47          C61   1.268       .  A
O48          C53   1.280       .  A
O49          C52   1.270       .  A
O50          C62   1.265       .  A
O51          C64   1.273       .  A
C52          C87   1.476       .  S
C52          O57   1.260       .  A
O55          C58   1.266       .  A
O56          C58   1.282       .  A
O59          C64   1.276       .  A
O60          C62   1.270       .  A
C61          C76   1.464       .  S
C61          O63   1.278       .  A
C64         C104   1.490       .  S
N65          C69   1.366   1_554  A
N65          C66   1.370       .  A
N65         C194   1.465       .  S
C66          C67   1.389       .  A
C66         C116   1.494       .  S
C67          C68   1.362   1_554  A
C67          H70   1.083       .  S
C68          C69   1.374       .  A
C68          H71   1.083       .  S
C69         C210   1.472       .  S
N72          C76   1.353       .  A
N72          C73   1.356       .  A
N72         C213   1.430       .  S
C73          C74   1.393       .  A
C73         C178   1.493       .  S
C74          C75   1.361       .  A
C74          H77   1.079       .  S
C75          C76   1.377       .  A
C75          H78   1.083       .  S
N79          C83   1.355       .  A
N79          C80   1.353       .  A
N79         C162   1.426       .  S
C80          C81   1.385       .  A
C80         C181   1.490       .  S
C81          C82   1.373       .  A
C81          H84   1.083       .  S
C82          C83   1.383       .  A
C82          H85   1.083       .  S
C83         C125   1.477       .  S
N86          C90   1.362       .  A
N86          C87   1.361       .  A
N86         C466   1.461       .  S
C87          C88   1.389       .  A
C88          C89   1.366       .  A
C88          H91   1.081       .  S
C89          C90   1.370       .  A
C89          H92   1.080       .  S
C90         C485   1.472       .  S
N93          C97   1.360       .  A
N93          C94   1.372       .  A
N93         C149   1.464       .  S
C94          C95   1.380       .  A
C94         C130   1.511       .  S
C95          C96   1.366       .  A
C95          H98   1.083       .  S
C96          C97   1.379       .  A
C96          H99   1.074       .  S
C97         C128   1.487       .  S
N100        C104   1.374       .  A
N100        C101   1.374       .  A
N100        C197   1.466       .  S
C101        C102   1.375       .  A
C101        C133   1.485       .  S
C102        C103   1.361       .  A
C102        H105   1.083       .  S
C103        C104   1.380       .  A
C103        H106   1.077       .  S
Fe107       O123   2.089       .  S
Fe107       O113   2.043       .  S
Fe107       O120   2.096       .  S
Fe107       O112   2.117       .  S
Fe107       O118   1.930       .  S
Fe108       O111   2.090       .  S
Fe108       O115   2.067       .  S
Fe108       O119   2.104       .  S
Fe108       O124   2.065       .  S
Fe108       O118   1.936       .  S
Fe109       O127   2.083       .  S
Fe109       O114   2.074       .  S
Fe109       O121   2.098       .  S
Fe109       O110   2.089       .  S
Fe109       O118   1.993       .  S
O110        C117   1.281       .  A
O111        C125   1.284       .  A
O112        C117   1.288       .  A
O113        C116   1.260       .  A
O114        C126   1.259       .  A
O115        C128   1.267       .  A
C116        O121   1.262       .  A
O119        C122   1.279       .  A
O120        C122   1.277       .  A
O123        C128   1.273       .  A
O124        C126   1.263       .  A
C125        O127   1.282       .  A
C129        C130   1.403       .  A
C129        C454   1.411   1_554  A
C129        H136   1.081   1_554  S
C130        C131   1.439       .  A
C131        C132   1.400       .  A
C131        C138   1.515       .  S
C132        C453   1.391       .  A
C132        H137   1.085       .  S
C133        C134   1.421       .  A
C133        C452   1.391       .  A
C134        C449   1.411       .  A
C134        C135   1.507       .  S
C135        H139   1.110       .  S
C135        H140   1.109       .  S
C135        H141   1.111       .  S
C138        H142   1.109       .  S
C138        H143   1.107       .  S
C138        H144   1.111       .  S
C145        C146   1.403       .  A
C145        C150   1.397       .  A
C145        H152   1.082       .  S
C146        N406   1.459   1_554  S
C146        C467   1.412   1_554  A
C147        C466   1.412       .  A
C147       C1108   1.422       .  A
C147        C154   1.502       .  S
C148        C149   1.415       .  A
C148       C1107   1.422   1_544  A
C148        H473   1.080       .  S
C149        C790   1.430   1_545  A
C150        C789   1.430       .  A
C150        C151   1.518       .  S
C151        H155   1.108       .  S
C151        H796   1.109       .  S
C151        H797   1.097       .  S
H153        C468   1.081       .  S
C154        H158   1.111       .  S
C154        H159   1.110       .  S
C154        H800   1.111       .  S
H156        C791   1.109       .  S
H157        C791   1.097       .  S
H160        C794   1.111   1_545  S
C161        C162   1.398       .  A
C161        C486   1.401   1_554  A
C161        H168   1.083   1_554  S
C162        C163   1.397       .  A
C163       C1444   1.396       .  A
C163        C170   1.495       .  S
C164        C165   1.400       .  A
C164       C1443   1.397   1_455  A
C164        H169   1.073       .  S
C165       C1766   1.410   1_454  A
C165        C410   1.471       .  S
C166        C481   1.400       .  A
C166       C1765   1.412       .  A
C166        C167   1.504       .  S
C167        H171   1.111       .  S
C167        H172   1.107       .  S
C167        H173   1.108       .  S
C170        H174   1.103       .  S
C170        H175   1.110       .  S
C170       H1456   1.104       .  S
H176       C1450   1.105       .  S
C177        C178   1.404       .  A
C177        C502   1.412       .  A
C177        H184   1.084       .  S
C178        C499   1.405       .  A
C179        C180   1.402       .  A
C179        C498   1.406   1_554  A
C179        C186   1.495       .  S
C180        C181   1.407       .  A
C180        H185   1.084       .  S
C181        C182   1.422   1_554  A
C182        C497   1.412       .  A
C182        C503   1.497       .  S
C183        C502   1.499       .  S
C183        H187   1.111       .  S
C183        H188   1.109       .  S
C183        H189   1.105       .  S
C186        H190   1.107       .  S
C186        H191   1.107       .  S
C186        H192   1.110       .  S
C193        C194   1.410       .  A
C193       C1478   1.411   1_554  A
C193        H200   1.080       .  S
C194        C195   1.420       .  A
C195        C516   1.413       .  A
C195        C202   1.500       .  S
C196        C515   1.413       .  A
C196       C1477   1.408       .  A
C196       H1481   1.079       .  S
C197       C1476   1.408       .  A
C197        C518   1.416   1_455  A
C198       C1473   1.410   1_556  A
C198        C517   1.416   1_655  A
C198        C199   1.499       .  S
C199        H204   1.109       .  S
C199       H1483   1.106       .  S
C199        H525   1.103   1_655  S
H201       C1476   1.080       .  S
C202        H206   1.100       .  S
C202        H207   1.110       .  S
C202        H208   1.102       .  S
H203       C1479   1.107       .  S
H205        C519   1.103   1_455  S
C209        C214   1.395   1_554  A
C209        C850   1.401   1_554  A
C209        H216   1.085       .  S
C210        C849   1.401   1_546  A
C210        C531   1.409       .  A
C211        C530   1.409       .  A
C211        C852   1.406   1_545  A
C211        C218   1.505       .  S
C212        C213   1.402       .  A
C212        C851   1.406       .  A
C212        H217   1.083       .  S
C213        C534   1.412       .  A
C214        C533   1.412       .  A
C214        C215   1.508   1_556  S
C215        H219   1.108       .  S
C215        H220   1.106       .  S
C215        H221   1.108       .  S
C218        H222   1.109       .  S
C218        H223   1.110       .  S
C218        H224   1.111       .  S
C225        C226   1.398       .  A
C225        C230   1.388       .  A
C225        H232   1.083       .  S
C226        C227   1.408       .  A
C227        C228   1.404       .  A
C227        C234   1.501       .  S
C228        C229   1.403       .  A
C228        H233   1.081       .  S
C229        C230   1.415       .  A
C230        C231   1.512       .  S
C231        H235   1.111       .  S
C231        H236   1.110       .  S
C231        H237   1.108       .  S
C234        H238   1.110       .  S
C234        H239   1.106       .  S
C234        H240   1.110       .  S
C241        C242   1.399       .  A
C241        C246   1.410       .  A
C241        H248   1.083       .  S
C242        C243   1.415       .  A
C243       C1524   1.405       .  A
C243        C250   1.502       .  S
C244        C245   1.398       .  A
C244       C1523   1.403       .  A
C244        H249   1.085       .  S
C245       C1526   1.420   1_455  A
C246       C1525   1.421       .  A
C246        C247   1.505       .  S
C247        H251   1.111       .  S
C247        H252   1.105       .  S
C247        H253   1.098       .  S
C250        H254   1.108       .  S
C250        H255   1.106       .  S
C250       H1536   1.110       .  S
H256       C1530   1.110       .  S
C257        C262   1.406       .  A
C257        C898   1.406       .  A
C257        H264   1.084       .  S
C258        C259   1.410       .  A
C258        C897   1.406   1_545  A
C259        C900   1.400       .  A
C259        C266   1.506       .  S
C260        C261   1.403       .  A
C260        C899   1.399       .  A
C260        H265   1.084       .  S
C261        C262   1.405       .  A
C262        C263   1.503       .  S
C263        H267   1.111       .  S
C263        H268   1.111       .  S
C263        H269   1.109       .  S
C266        H270   1.110       .  S
C266        H271   1.105       .  S
C266        H272   1.111       .  S
C273        C274   1.408       .  A
C273       C1558   1.414       .  A
C273        H280   1.083       .  S
C274        C275   1.410       .  A
C275        C276   1.410       .  A
C275        C282   1.503       .  S
C276       C1557   1.421       .  A
C276        H281   1.076       .  S
C277        C278   1.417       .  A
C277       C1556   1.421   1_455  A
C278       C1553   1.416   1_455  A
C278        C279   1.494       .  S
C279        H283   1.108       .  S
C279        H284   1.110       .  S
C279        H285   1.107       .  S
C282        H286   1.110       .  S
C282        H287   1.108       .  S
C282        H288   1.110       .  S
C289        C290   1.419       .  A
C289        C934   1.419       .  A
C289        H296   1.083       .  S
C290        C291   1.406       .  A
C291        C292   1.394       .  A
C291        C298   1.501       .  S
C292        C933   1.411       .  A
C292        H937   1.075       .  S
C293        C294   1.410       .  A
C293        C932   1.411       .  A
C294        C929   1.419       .  A
C294        C295   1.500       .  S
C295        H299   1.110       .  S
C295        H300   1.110       .  S
C295        H301   1.104       .  S
H297        C932   1.079   1_565  S
C298        H302   1.106       .  S
C298        H303   1.109       .  S
C298        H304   1.110       .  S
C305        C306   1.405       .  A
C305        C310   1.408       .  A
C305        H312   1.085       .  S
C306        C307   1.415       .  A
C307        C308   1.401       .  A
C307        C314   1.510   1_455  S
C308        C309   1.406       .  A
C308        H313   1.074       .  S
C309        C310   1.417       .  A
C310        C311   1.507       .  S
C311        H315   1.111       .  S
C311        H316   1.111       .  S
C311        H317   1.109       .  S
C314        H318   1.110       .  S
C314        H319   1.110       .  S
C314        H320   1.106   1_655  S
N321        C325   1.372       .  A
N321        C322   1.372       .  A
N321        C613   1.460       .  S
C322        C323   1.371       .  A
C322        C629   1.493       .  S
C323        C324   1.367       .  A
C323        H326   1.081       .  S
C324        C325   1.375       .  A
C324        H327   1.075       .  S
C325        C442   1.499       .  S
N328        C332   1.374       .  A
N328        C329   1.368       .  A
N328        C597   1.479       .  S
C329        C330   1.377       .  A
C329        C626   1.489       .  S
C330        C331   1.361       .  A
C330        H333   1.080       .  S
C331        C332   1.385       .  A
C331        H334   1.084       .  S
C332        C378   1.487       .  S
N335        C339   1.367       .  A
N335        C336   1.372       .  A
N335        C594   1.460       .  S
C336        C337   1.382       .  A
C336        C437   1.489       .  S
C337        C338   1.362       .  A
C337        H340   1.076       .  S
C338        C339   1.368       .  A
C338        H341   1.081       .  S
C339        C578   1.478       .  S
N342        C346   1.352       .  A
N342        C343   1.357       .  A
N342        C562   1.444       .  S
C343        C344   1.383       .  A
C343        C546   1.472       .  S
C344        C345   1.372       .  A
C344        H347   1.083       .  S
C345        C346   1.381       .  A
C345        H348   1.082       .  S
C346        C446   1.472       .  S
N349        C353   1.351       .  A
N349        C350   1.357       .  A
N349        C581   1.436       .  S
C350        C351   1.382       .  A
C350        C549   1.472       .  S
C351        C352   1.366       .  A
C351        H354   1.083       .  S
C352        C353   1.380       .  A
C352        H355   1.079       .  S
C353        C382   1.469       .  S
N356        C360   1.369       .  A
N356        C357   1.364       .  A
N356        C610   1.456       .  S
C357        C358   1.387       .  A
C357        C373   1.477       .  S
C358        C359   1.367       .  A
C358        H361   1.083       .  S
C359        C360   1.372       .  A
C359        H362   1.082       .  S
C360        C565   1.489       .  S
Fe363       O379   2.100       .  S
Fe363       O369   2.093       .  S
Fe363       O376   2.118       .  S
Fe363       O368   2.060       .  S
Fe363       O374   1.945       .  S
Fe364       O367   2.022       .  S
Fe364       O371   2.107       .  S
Fe364       O375   2.060       .  S
Fe364       O380   2.070       .  S
Fe364       O374   1.931       .  S
Fe365       O383   2.097       .  S
Fe365       O370   2.054       .  S
Fe365       O377   2.054       .  S
Fe365       O366   2.113       .  S
Fe365       O374   1.947       .  S
O366        C373   1.284       .  A
O367        C381   1.270       .  A
O368        C373   1.278       .  A
O369        C372   1.269       .  A
O370        C382   1.264       .  A
O371        C384   1.273       .  A
C372        C407   1.475       .  S
C372        O377   1.260       .  A
O375        C378   1.267       .  A
O376        C378   1.280       .  A
O379        C384   1.276       .  A
O380        C382   1.270       .  A
C381        C396   1.465       .  S
C381        O383   1.279       .  A
C384        C424   1.488       .  S
N385        C389   1.366       .  A
N385        C386   1.371       .  A
N385        C514   1.466       .  S
C386        C387   1.389       .  A
C386        C436   1.496       .  S
C387        C388   1.363       .  A
C387        H390   1.083       .  S
C388        C389   1.375       .  A
C388        H391   1.083       .  S
C389        C530   1.473       .  S
N392        C396   1.353       .  A
N392        C393   1.356       .  A
N392        C533   1.431       .  S
C393        C394   1.393       .  A
C393        C498   1.493       .  S
C394        C395   1.362       .  A
C394        H397   1.080       .  S
C395        C396   1.377       .  A
C395        H398   1.083       .  S
N399        C403   1.354       .  A
N399        C400   1.353       .  A
N399        C482   1.425       .  S
C400        C401   1.384       .  A
C400        C501   1.488       .  S
C401        C402   1.374       .  A
C401        H404   1.083       .  S
C402        C403   1.384       .  A
C402        H405   1.083       .  S
C403        C445   1.477       .  S
N406        C410   1.361   1_556  A
N406        C407   1.359       .  A
C407        C408   1.389       .  A
C408        C409   1.367   1_556  A
C408        H411   1.080       .  S
C409        C410   1.369       .  A
C409        H412   1.080       .  S
N413        C417   1.359       .  A
N413        C414   1.372       .  A
N413        C469   1.463       .  S
C414        C415   1.380       .  A
C414        C450   1.511       .  S
C415        C416   1.366       .  A
C415        H418   1.083       .  S
C416        C417   1.380       .  A
C416        H419   1.073       .  S
C417        C448   1.488       .  S
N420        C424   1.374       .  A
N420        C421   1.373       .  A
N420        C517   1.466       .  S
C421        C422   1.375       .  A
C421        C453   1.484   1_556  S
C422        C423   1.360       .  A
C422        H425   1.083   1_556  S
C423        C424   1.380       .  A
C423        H426   1.077       .  S
Fe427       O443   2.094       .  S
Fe427       O433   2.053       .  S
Fe427       O440   2.098       .  S
Fe427       O432   2.122       .  S
Fe427       O438   1.934       .  S
Fe428       O431   2.086       .  S
Fe428       O435   2.067       .  S
Fe428       O439   2.104       .  S
Fe428       O444   2.066       .  S
Fe428       O438   1.937       .  S
Fe429       O447   2.084       .  S
Fe429       O434   2.074       .  S
Fe429       O441   2.097       .  S
Fe429       O430   2.088       .  S
Fe429       O438   1.992       .  S
O430        C437   1.280       .  A
O431        C445   1.282       .  A
O432        C437   1.288       .  A
O433        C436   1.263       .  A
O434        C446   1.260       .  A
O435        C448   1.267       .  A
C436        O441   1.262       .  A
O439        C442   1.280       .  A
O440        C442   1.278       .  A
O443        C448   1.274       .  A
O444        C446   1.265       .  A
C445        O447   1.282       .  A
C449        C450   1.404       .  A
C449        H456   1.081       .  S
C450        C451   1.438       .  A
C451        C452   1.400       .  A
C451        C458   1.514       .  S
C452        H457   1.085       .  S
C453        C454   1.421   1_554  A
C454        C455   1.507       .  S
C455        H459   1.110       .  S
C455        H460   1.109       .  S
C455        H461   1.111       .  S
C458        H462   1.109       .  S
C458        H463   1.107       .  S
C458        H464   1.111       .  S
C465        C466   1.403       .  A
C465        C470   1.398       .  A
C465        H472   1.083       .  S
C467        C788   1.421   1_556  A
C467        C474   1.501       .  S
C468        C787   1.421   1_545  A
C468        C469   1.414       .  A
C469       C1110   1.430   1_545  A
C470       C1109   1.430       .  A
C470        C471   1.519       .  S
C471        H475   1.109       .  S
C471       H1116   1.109       .  S
C471       H1117   1.097       .  S
C474        H478   1.111       .  S
C474        H479   1.109       .  S
C474       H1120   1.111       .  S
H476       C1111   1.109       .  S
H477       C1111   1.098       .  S
H480       C1114   1.111   1_545  S
C481        C482   1.397       .  A
C481        H488   1.083       .  S
C482        C483   1.398       .  A
C483       C1764   1.396       .  A
C483        C490   1.497       .  S
C484       C1763   1.396   1_455  A
C484        C485   1.400       .  A
C484        H489   1.072       .  S
C485       C1446   1.411   1_455  A
C486       C1445   1.411   1_556  A
C486        C487   1.504       .  S
C487        H491   1.111       .  S
C487        H492   1.108       .  S
C487        H493   1.109       .  S
C490        H494   1.103       .  S
C490        H495   1.110       .  S
C490       H1776   1.105       .  S
H496       C1770   1.106       .  S
C497        C498   1.403       .  A
C497        H504   1.084       .  S
C499        C500   1.402       .  A
C499        C506   1.496       .  S
C500        C501   1.407       .  A
C500        H505   1.084       .  S
C501        C502   1.422       .  A
C503        H507   1.111       .  S
C503        H508   1.109       .  S
C503        H509   1.106       .  S
C506        H510   1.107       .  S
C506        H511   1.107       .  S
C506        H512   1.110       .  S
C513        C514   1.411       .  A
C513       C1798   1.411       .  A
C513        H520   1.079       .  S
C514        C515   1.420       .  A
C515        C522   1.500       .  S
C516       C1797   1.409   1_554  A
C516       H1801   1.080       .  S
C517       C1796   1.408   1_456  A
C518       C1793   1.410       .  A
C518        C519   1.499       .  S
C519       H1803   1.106       .  S
C519        H524   1.110       .  S
H521       C1796   1.079   1_455  S
C522        H526   1.100       .  S
C522        H527   1.110       .  S
C522        H528   1.103       .  S
H523       C1799   1.106       .  S
C529       C1170   1.400       .  A
C529        C534   1.394       .  A
C529        H536   1.085       .  S
C530       C1169   1.401   1_545  A
C531       C1172   1.406   1_545  A
C531        C538   1.505       .  S
C532       C1171   1.406       .  A
C532        C533   1.402       .  A
C532        H537   1.084       .  S
C534        C535   1.508       .  S
C535        H539   1.109       .  S
C535        H540   1.107       .  S
C535        H541   1.108       .  S
C538        H542   1.109       .  S
C538        H543   1.110       .  S
C538        H544   1.111       .  S
C545        C546   1.398       .  A
C545        C550   1.389       .  A
C545        H552   1.083       .  S
C546        C547   1.410       .  A
C547        C548   1.406       .  A
C547        C554   1.501       .  S
C548        C549   1.403       .  A
C548        H553   1.082       .  S
C549        C550   1.417       .  A
C550        C551   1.513       .  S
C551        H555   1.111       .  S
C551        H556   1.110       .  S
C551        H557   1.108       .  S
C554        H558   1.109       .  S
C554        H559   1.106       .  S
C554        H560   1.110       .  S
C561        C562   1.398       .  A
C561        C566   1.409       .  A
C561        H568   1.083       .  S
C562        C563   1.415       .  A
C563       C1844   1.405       .  A
C563        C570   1.503       .  S
C564       C1843   1.404       .  A
C564        C565   1.399       .  A
C564        H569   1.085       .  S
C565       C1846   1.422   1_455  A
C566       C1845   1.421       .  A
C566        C567   1.503       .  S
C567        H571   1.111       .  S
C567        H572   1.107       .  S
C567        H573   1.096       .  S
C570        H574   1.107       .  S
C570        H575   1.106       .  S
C570       H1856   1.110       .  S
H576       C1850   1.110       .  S
C577       C1218   1.406       .  A
C577        C582   1.406       .  A
C577        H584   1.084       .  S
C578       C1217   1.406   1_545  A
C578        C579   1.410       .  A
C579       C1220   1.399       .  A
C579        C586   1.506       .  S
C580       C1219   1.401       .  A
C580        C581   1.404       .  A
C580        H585   1.084       .  S
C581        C582   1.406       .  A
C582        C583   1.503       .  S
C583        H587   1.111       .  S
C583        H588   1.110       .  S
C583        H589   1.108       .  S
C586        H590   1.110       .  S
C586        H591   1.103       .  S
C586        H592   1.111       .  S
C593        C594   1.409       .  A
C593       C1878   1.415       .  A
C593        H600   1.083       .  S
C594        C595   1.411       .  A
C595        C596   1.411       .  A
C595        C602   1.502       .  S
C596       C1877   1.420       .  A
C596        H601   1.075       .  S
C597       C1876   1.421   1_455  A
C597        C598   1.423   1_455  A
C598       C1873   1.414       .  A
C598        C599   1.496   1_655  S
C599        H603   1.108       .  S
C599        H604   1.109       .  S
C599        H605   1.109       .  S
C602        H606   1.110       .  S
C602        H607   1.108       .  S
C602        H608   1.110       .  S
C609        C610   1.418       .  A
C609       C1254   1.418       .  A
C609        H616   1.083       .  S
C610        C611   1.404       .  A
C611        C612   1.393       .  A
C611        C618   1.502       .  S
C612       C1253   1.411       .  A
C612       H1257   1.078       .  S
C613       C1252   1.411       .  A
C613        C614   1.410       .  A
C614       C1249   1.419       .  A
C614        C615   1.499       .  S
C615        H619   1.110       .  S
C615        H620   1.110       .  S
C615        H621   1.103       .  S
H617       C1252   1.076   1_565  S
C618        H622   1.109       .  S
C618        H623   1.109       .  S
C618        H624   1.110       .  S
C625        C626   1.405       .  A
C625        C630   1.410       .  A
C625        H632   1.085       .  S
C626        C627   1.413       .  A
C627        C628   1.400       .  A
C627        C634   1.509   1_455  S
C628        C629   1.406       .  A
C628        H633   1.075       .  S
C629        C630   1.416       .  A
C630        C631   1.507       .  S
C631        H635   1.110       .  S
C631        H636   1.111       .  S
C631        H637   1.108       .  S
C634        H638   1.108       .  S
C634        H639   1.110       .  S
C634        H640   1.105       .  S
N641        C645   1.372       .  A
N641        C642   1.371       .  A
N641        C933   1.460       .  S
C642        C643   1.371       .  A
C642        C949   1.493       .  S
C643        C644   1.367       .  A
C643        H646   1.081       .  S
C644        C645   1.375       .  A
C644        H647   1.075       .  S
C645        C762   1.499       .  S
N648        C652   1.374       .  A
N648        C649   1.368       .  A
N648        C917   1.479       .  S
C649        C650   1.377       .  A
C649        C946   1.489       .  S
C650        C651   1.361       .  A
C650        H653   1.080       .  S
C651        C652   1.385       .  A
C651        H654   1.084       .  S
C652        C698   1.487       .  S
N655        C659   1.366       .  A
N655        C656   1.372       .  A
N655        C914   1.460       .  S
C656        C657   1.382       .  A
C656        C757   1.488       .  S
C657        C658   1.362       .  A
C657        H660   1.076       .  S
C658        C659   1.368       .  A
C658        H661   1.081       .  S
C659        C898   1.477       .  S
N662        C666   1.351       .  A
N662        C663   1.356       .  A
N662        C882   1.444       .  S
C663        C664   1.383       .  A
C663        C866   1.471       .  S
C664        C665   1.372       .  A
C664        H667   1.083       .  S
C665        C666   1.381       .  A
C665        H668   1.082       .  S
C666        C766   1.471       .  S
N669        C673   1.350       .  A
N669        C670   1.356       .  A
N669        C901   1.436       .  S
C670        C671   1.382       .  A
C670        C869   1.471       .  S
C671        C672   1.366       .  A
C671        H674   1.083       .  S
C672        C673   1.380       .  A
C672        H675   1.079       .  S
C673        C702   1.468       .  S
N676        C680   1.369       .  A
N676        C677   1.365       .  A
N676        C930   1.456       .  S
C677        C678   1.387       .  A
C677        C693   1.479       .  S
C678        C679   1.367       .  A
C678        H681   1.083       .  S
C679        C680   1.372       .  A
C679        H682   1.082       .  S
C680        C885   1.489       .  S
Fe683       O699   2.102       .  S
Fe683       O689   2.094       .  S
Fe683       O696   2.119       .  S
Fe683       O688   2.062       .  S
Fe683       O694   1.944       .  S
Fe684       O687   2.022       .  S
Fe684       O691   2.106       .  S
Fe684       O695   2.060       .  S
Fe684       O700   2.069       .  S
Fe684       O694   1.931       .  S
Fe685       O703   2.098       .  S
Fe685       O690   2.053       .  S
Fe685       O697   2.053       .  S
Fe685       O686   2.114       .  S
Fe685       O694   1.947       .  S
O686        C693   1.284       .  A
O687        C701   1.269       .  A
O688        C693   1.279       .  A
O689        C692   1.269       .  A
O690        C702   1.264       .  A
O691        C704   1.273       .  A
C692        C727   1.475       .  S
C692        O697   1.260       .  A
O695        C698   1.267       .  A
O696        C698   1.281       .  A
O699        C704   1.276       .  A
O700        C702   1.270       .  A
C701        C716   1.465       .  S
C701        O703   1.279       .  A
C704        C744   1.489       .  S
N705        C709   1.366       .  A
N705        C706   1.371       .  A
N705        C834   1.466       .  S
C706        C707   1.388       .  A
C706        C756   1.495       .  S
C707        C708   1.363   1_554  A
C707        H710   1.083       .  S
C708        C709   1.375   1_556  A
C708        H711   1.083       .  S
C709        C850   1.472   1_554  S
N712        C716   1.353       .  A
N712        C713   1.356       .  A
N712        C853   1.430       .  S
C713        C714   1.393       .  A
C713        C818   1.493       .  S
C714        C715   1.363       .  A
C714        H717   1.080       .  S
C715        C716   1.377       .  A
C715        H718   1.083       .  S
N719        C723   1.354       .  A
N719        C720   1.353       .  A
N719        C802   1.425       .  S
C720        C721   1.384       .  A
C720        C821   1.488       .  S
C721        C722   1.374       .  A
C721        H724   1.083       .  S
C722        C723   1.384       .  A
C722        H725   1.083       .  S
C723        C765   1.476       .  S
N726        C730   1.360       .  A
N726        C727   1.359       .  A
N726       C1106   1.459       .  S
C727        C728   1.389       .  A
C728        C729   1.367       .  A
C728        H731   1.080       .  S
C729        C730   1.369       .  A
C729        H732   1.080       .  S
C730       C1125   1.470       .  S
N733        C737   1.359       .  A
N733        C734   1.371       .  A
N733        C789   1.463       .  S
C734        C735   1.380       .  A
C734        C770   1.511       .  S
C735        C736   1.366       .  A
C735        H738   1.083       .  S
C736        C737   1.380       .  A
C736        H739   1.073       .  S
C737        C768   1.488       .  S
N740        C744   1.375       .  A
N740        C741   1.374       .  A
N740        C837   1.466       .  S
C741        C742   1.375       .  A
C741        C773   1.485       .  S
C742        C743   1.360       .  A
C742        H745   1.083       .  S
C743        C744   1.380       .  A
C743        H746   1.077       .  S
Fe747       O763   2.094       .  S
Fe747       O753   2.053       .  S
Fe747       O760   2.098       .  S
Fe747       O752   2.122       .  S
Fe747       O758   1.934       .  S
Fe748       O751   2.086       .  S
Fe748       O755   2.066       .  S
Fe748       O759   2.104       .  S
Fe748       O764   2.066       .  S
Fe748       O758   1.936       .  S
Fe749       O767   2.084       .  S
Fe749       O754   2.073       .  S
Fe749       O761   2.095       .  S
Fe749       O750   2.086       .  S
Fe749       O758   1.992       .  S
O750        C757   1.279       .  A
O751        C765   1.283       .  A
O752        C757   1.288       .  A
O753        C756   1.263       .  A
O754        C766   1.260       .  A
O755        C768   1.267       .  A
C756        O761   1.261       .  A
O759        C762   1.280       .  A
O760        C762   1.278       .  A
O763        C768   1.274       .  A
O764        C766   1.265       .  A
C765        O767   1.282       .  A
C769        C770   1.403       .  A
C769       C1094   1.411   1_554  A
C769        H776   1.082   1_554  S
C770        C771   1.438       .  A
C771        C772   1.401       .  A
C771        C778   1.514       .  S
C772       C1093   1.391       .  A
C772        H777   1.085       .  S
C773       C1092   1.391       .  A
C773        C774   1.421       .  A
C774       C1089   1.410       .  A
C774        C775   1.507       .  S
C775        H779   1.110       .  S
C775        H780   1.109       .  S
C775        H781   1.111       .  S
C778        H782   1.109       .  S
C778        H783   1.107       .  S
C778        H784   1.111       .  S
C785        C786   1.403       .  A
C785        C790   1.398       .  A
C785        H792   1.083       .  S
C786       N1046   1.460   1_554  S
C786       C1107   1.412   1_554  A
C787       C1106   1.412       .  A
C787        C794   1.501       .  S
C788        C789   1.414       .  A
C788       H1113   1.081       .  S
C790        C791   1.519       .  S
C791        H795   1.109       .  S
H793       C1108   1.080       .  S
C794        H798   1.111       .  S
C794        H799   1.109       .  S
C801        C802   1.397       .  A
C801       C1126   1.400   1_554  A
C801        H808   1.083   1_554  S
C802        C803   1.398       .  A
C803       C2084   1.396       .  A
C803        C810   1.497       .  S
C804       C2083   1.396   1_455  A
C804        C805   1.400       .  A
C804        H809   1.072       .  S
C805       C2406   1.411   1_454  A
C805       C1050   1.472       .  S
C806       C1121   1.401       .  A
C806       C2405   1.411       .  A
C806        C807   1.504       .  S
C807        H811   1.111       .  S
C807        H812   1.108       .  S
C807        H813   1.109       .  S
C810        H814   1.103       .  S
C810        H815   1.110       .  S
C810       H2096   1.106       .  S
H816       C2090   1.106       .  S
C817        C818   1.403       .  A
C817       C1142   1.412       .  A
C817        H824   1.084       .  S
C818       C1139   1.406       .  A
C819       C1138   1.405   1_554  A
C819        C820   1.402       .  A
C819        C826   1.496       .  S
C820        C821   1.408       .  A
C820        H825   1.084       .  S
C821        C822   1.422   1_554  A
C822       C1137   1.412       .  A
C822       C1143   1.498       .  S
C823       C1142   1.496       .  S
C823        H827   1.111       .  S
C823        H828   1.108       .  S
C823        H829   1.106       .  S
C826        H830   1.107       .  S
C826        H831   1.107       .  S
C826        H832   1.110       .  S
C833        C834   1.411       .  A
C833       C2118   1.411   1_554  A
C833        H840   1.080       .  S
C834        C835   1.420       .  A
C835       C1156   1.413       .  A
C835        C842   1.500       .  S
C836       C1155   1.412       .  A
C836       C2117   1.408       .  A
C836       H2121   1.080       .  S
C837       C2116   1.408   1_455  A
C837       C1158   1.416   1_455  A
C838       C2113   1.410   1_556  A
C838       C1157   1.416   1_655  A
C838        C839   1.499       .  S
C839       H2123   1.106       .  S
C839        H844   1.110       .  S
C839       H1165   1.103   1_655  S
H841       C2116   1.080   1_455  S
C842        H846   1.100       .  S
C842        H847   1.110       .  S
C842        H848   1.103       .  S
H843       C2119   1.105       .  S
H845       C1159   1.103   1_455  S
C849        C854   1.395   1_554  A
C849        H856   1.085       .  S
C850       C1171   1.409       .  A
C851       C1170   1.409       .  A
C851        C858   1.505       .  S
C852        C853   1.402       .  A
C852        H857   1.084       .  S
C853       C1174   1.412       .  A
C854       C1173   1.412       .  A
C854        C855   1.509   1_556  S
C855        H859   1.109       .  S
C855        H860   1.107       .  S
C855        H861   1.108       .  S
C858        H862   1.109       .  S
C858        H863   1.110       .  S
C858        H864   1.111       .  S
C865        C866   1.398       .  A
C865        C870   1.388       .  A
C865        H872   1.083       .  S
C866        C867   1.409       .  A
C867        C868   1.405       .  A
C867        C874   1.501       .  S
C868        C869   1.403       .  A
C868        H873   1.081       .  S
C869        C870   1.417       .  A
C870        C871   1.513       .  S
C871        H875   1.111       .  S
C871        H876   1.110       .  S
C871        H877   1.108       .  S
C874        H878   1.109       .  S
C874        H879   1.106       .  S
C874        H880   1.110   1_565  S
C881        C882   1.398       .  A
C881        C886   1.409       .  A
C881        H888   1.083       .  S
C882        C883   1.415       .  A
C883       C2164   1.405       .  A
C883        C890   1.503       .  S
C884       C2163   1.405       .  A
C884        C885   1.399       .  A
C884        H889   1.085       .  S
C885       C2166   1.422   1_455  A
C886       C2165   1.421       .  A
C886        C887   1.504       .  S
C887        H891   1.111       .  S
C887        H892   1.107       .  S
C887        H893   1.097       .  S
C890        H894   1.107       .  S
C890        H895   1.106       .  S
C890       H2176   1.110       .  S
H896       C2170   1.110       .  S
C897        C902   1.406       .  A
C897        H904   1.084       .  S
C898        C899   1.410       .  A
C899        C906   1.506       .  S
C900        C901   1.404   1_545  A
C900        H905   1.084       .  S
C901        C902   1.406       .  A
C902        C903   1.503       .  S
C903        H907   1.111       .  S
C903        H908   1.110       .  S
C903        H909   1.108       .  S
C906        H910   1.110       .  S
C906        H911   1.103       .  S
C906        H912   1.111       .  S
C913        C914   1.408       .  A
C913       C2198   1.414       .  A
C913        H920   1.083       .  S
C914        C915   1.411       .  A
C915        C916   1.411       .  A
C915        C922   1.503       .  S
C916       C2197   1.420       .  A
C916        H921   1.075       .  S
C917       C2196   1.421   1_455  A
C917        C918   1.422   1_455  A
C918       C2193   1.414       .  A
C918        C919   1.496   1_655  S
C919        H923   1.108       .  S
C919        H924   1.109       .  S
C919        H925   1.109       .  S
C922        H926   1.110       .  S
C922        H927   1.108       .  S
C922        H928   1.110       .  S
C929        C930   1.418   1_545  A
C929        H936   1.083       .  S
C930        C931   1.405       .  A
C931        C932   1.393   1_565  A
C931        C938   1.502       .  S
C933        C934   1.409       .  A
C934        C935   1.499       .  S
C935        H939   1.110       .  S
C935        H940   1.110       .  S
C935        H941   1.103       .  S
C938        H942   1.109       .  S
C938        H943   1.108       .  S
C938        H944   1.110       .  S
C945        C946   1.405       .  A
C945        C950   1.410       .  A
C945        H952   1.084       .  S
C946        C947   1.412       .  A
C947        C948   1.400       .  A
C947        C954   1.509   1_455  S
C948        C949   1.406       .  A
C948        H953   1.074       .  S
C949        C950   1.416       .  A
C950        C951   1.507       .  S
C951        H955   1.110       .  S
C951        H956   1.111       .  S
C951        H957   1.108       .  S
C954        H958   1.107       .  S
C954        H959   1.111       .  S
C954        H960   1.105       .  S
N961        C965   1.372       .  A
N961        C962   1.372       .  A
N961       C1253   1.459       .  S
C962        C963   1.372       .  A
C962       C1269   1.494       .  S
C963        C964   1.367       .  A
C963        H966   1.081       .  S
C964        C965   1.375       .  A
C964        H967   1.076       .  S
C965       C1082   1.498       .  S
N968        C972   1.376       .  A
N968        C969   1.367       .  A
N968       C1237   1.478       .  S
C969        C970   1.378       .  A
C969       C1266   1.492       .  S
C970        C971   1.363       .  A
C970        H973   1.079       .  S
C971        C972   1.386       .  A
C971        H974   1.084       .  S
C972       C1018   1.493       .  S
N975        C979   1.368       .  A
N975        C976   1.371       .  A
N975       C1234   1.459       .  S
C976        C977   1.382       .  A
C976       C1077   1.487       .  S
C977        C978   1.361       .  A
C977        H980   1.075       .  S
C978        C979   1.368       .  A
C978        H981   1.081       .  S
C979       C1218   1.478       .  S
N982        C986   1.352       .  A
N982        C983   1.356       .  A
N982       C1202   1.445       .  S
C983        C984   1.382       .  A
C983       C1186   1.467       .  S
C984        C985   1.370       .  A
C984        H987   1.083       .  S
C985        C986   1.382       .  A
C985        H988   1.081       .  S
C986       C1086   1.470       .  S
N989        C993   1.349       .  A
N989        C990   1.355       .  A
N989       C1221   1.435       .  S
C990        C991   1.381       .  A
C990       C1189   1.469       .  S
C991        C992   1.365       .  A
C991        H994   1.083       .  S
C992        C993   1.380       .  A
C992        H995   1.078       .  S
C993       C1022   1.466       .  S
N996       C1000   1.370       .  A
N996        C997   1.367       .  A
N996       C1250   1.459       .  S
C997        C998   1.386       .  A
C997       C1013   1.477       .  S
C998        C999   1.365       .  A
C998       H1001   1.083       .  S
C999       C1000   1.372       .  A
C999       H1002   1.081       .  S
C1000      C1205   1.487       .  S
Fe1003     O1019   2.104       .  S
Fe1003     O1009   2.097       .  S
Fe1003     O1016   2.127       .  S
Fe1003     O1008   2.065       .  S
Fe1003     O1014   1.944       .  S
Fe1004     O1007   2.019       .  S
Fe1004     O1011   2.105       .  S
Fe1004     O1015   2.061       .  S
Fe1004     O1020   2.067       .  S
Fe1004     O1014   1.933       .  S
Fe1005     O1023   2.096       .  S
Fe1005     O1010   2.054       .  S
Fe1005     O1017   2.054       .  S
Fe1005     O1006   2.112       .  S
Fe1005     O1014   1.948       .  S
O1006      C1013   1.283       .  A
O1007      C1021   1.268       .  A
O1008      C1013   1.280       .  A
O1009      C1012   1.270       .  A
O1010      C1022   1.265       .  A
O1011      C1024   1.274       .  A
C1012      C1047   1.476       .  S
C1012      O1017   1.260       .  A
O1015      C1018   1.266       .  A
O1016      C1018   1.282       .  A
O1019      C1024   1.276       .  A
O1020      C1022   1.270       .  A
C1021      C1036   1.464       .  S
C1021      O1023   1.278       .  A
C1024      C1064   1.490       .  S
N1025      C1029   1.366       .  A
N1025      C1026   1.369       .  A
N1025      C1154   1.465       .  S
C1026      C1027   1.389       .  A
C1026      C1076   1.494       .  S
C1027      C1028   1.363       .  A
C1027      H1030   1.083       .  S
C1028      C1029   1.375       .  A
C1028      H1031   1.083       .  S
C1029      C1170   1.471       .  S
N1032      C1036   1.353       .  A
N1032      C1033   1.356       .  A
N1032      C1173   1.430       .  S
C1033      C1034   1.394       .  A
C1033      C1138   1.494       .  S
C1034      C1035   1.361       .  A
C1034      H1037   1.079       .  S
C1035      C1036   1.376       .  A
C1035      H1038   1.083       .  S
N1039      C1043   1.354       .  A
N1039      C1040   1.354       .  A
N1039      C1122   1.426       .  S
C1040      C1041   1.384       .  A
C1040      C1141   1.490       .  S
C1041      C1042   1.373       .  A
C1041      H1044   1.083       .  S
C1042      C1043   1.383       .  A
C1042      H1045   1.083       .  S
C1043      C1085   1.477       .  S
N1046      C1050   1.362   1_556  A
N1046      C1047   1.361       .  A
C1047      C1048   1.390       .  A
C1048      C1049   1.366   1_556  A
C1048      H1051   1.081       .  S
C1049      C1050   1.370       .  A
C1049      H1052   1.080       .  S
N1053      C1057   1.360       .  A
N1053      C1054   1.372       .  A
N1053      C1109   1.464       .  S
C1054      C1055   1.380       .  A
C1054      C1090   1.511       .  S
C1055      C1056   1.365       .  A
C1055      H1058   1.083       .  S
C1056      C1057   1.379       .  A
C1056      H1059   1.074       .  S
C1057      C1088   1.486       .  S
N1060      C1064   1.374       .  A
N1060      C1061   1.374       .  A
N1060      C1157   1.466       .  S
C1061      C1062   1.375       .  A
C1061      C1093   1.485   1_556  S
C1062      C1063   1.361       .  A
C1062      H1065   1.083   1_556  S
C1063      C1064   1.380       .  A
C1063      H1066   1.077       .  S
Fe1067     O1083   2.089       .  S
Fe1067     O1073   2.044       .  S
Fe1067     O1080   2.097       .  S
Fe1067     O1072   2.119       .  S
Fe1067     O1078   1.930       .  S
Fe1068     O1071   2.090       .  S
Fe1068     O1075   2.066       .  S
Fe1068     O1079   2.104       .  S
Fe1068     O1084   2.064       .  S
Fe1068     O1078   1.935       .  S
Fe1069     O1087   2.083       .  S
Fe1069     O1074   2.074       .  S
Fe1069     O1081   2.096       .  S
Fe1069     O1070   2.088       .  S
Fe1069     O1078   1.993       .  S
O1070      C1077   1.281       .  A
O1071      C1085   1.284       .  A
O1072      C1077   1.288       .  A
O1073      C1076   1.260       .  A
O1074      C1086   1.259       .  A
O1075      C1088   1.267       .  A
C1076      O1081   1.261       .  A
O1079      C1082   1.279       .  A
O1080      C1082   1.277       .  A
O1083      C1088   1.273       .  A
O1084      C1086   1.263       .  A
C1085      O1087   1.282       .  A
C1089      C1090   1.403       .  A
C1089      H1096   1.081       .  S
C1090      C1091   1.439       .  A
C1091      C1092   1.401       .  A
C1091      C1098   1.515       .  S
C1092      H1097   1.085       .  S
C1093      C1094   1.421   1_554  A
C1094      C1095   1.507       .  S
C1095      H1099   1.110       .  S
C1095      H1100   1.109       .  S
C1095      H1101   1.111       .  S
C1098      H1102   1.109       .  S
C1098      H1103   1.106       .  S
C1098      H1104   1.111       .  S
C1105      C1106   1.403       .  A
C1105      C1110   1.397       .  A
C1105      H1112   1.082       .  S
C1107      C1114   1.502       .  S
C1108      C1109   1.414       .  A
C1110      C1111   1.518       .  S
C1111      H1115   1.108       .  S
C1114      H1118   1.111       .  S
C1114      H1119   1.110       .  S
C1121      C1122   1.398       .  A
C1121      H1128   1.083       .  S
C1122      C1123   1.397       .  A
C1123      C2404   1.396       .  A
C1123      C1130   1.496       .  S
C1124      C2403   1.397   1_455  A
C1124      C1125   1.400       .  A
C1124      H1129   1.074       .  S
C1125      C2086   1.410   1_455  A
C1126      C2085   1.412   1_556  A
C1126      C1127   1.504       .  S
C1127      H1131   1.111       .  S
C1127      H1132   1.107       .  S
C1127      H1133   1.108       .  S
C1130      H1134   1.103       .  S
C1130      H1135   1.110       .  S
C1130      H2416   1.104       .  S
H1136      C2410   1.105       .  S
C1137      C1138   1.404       .  A
C1137      H1144   1.084       .  S
C1139      C1140   1.402       .  A
C1139      C1146   1.495       .  S
C1140      C1141   1.407       .  A
C1140      H1145   1.084       .  S
C1141      C1142   1.422       .  A
C1143      H1147   1.111       .  S
C1143      H1148   1.109       .  S
C1143      H1149   1.105       .  S
C1146      H1150   1.107       .  S
C1146      H1151   1.107       .  S
C1146      H1152   1.110       .  S
C1153      C1154   1.411       .  A
C1153      C2438   1.411       .  A
C1153      H1160   1.079       .  S
C1154      C1155   1.420       .  A
C1155      C1162   1.500       .  S
C1156      C2437   1.408   1_554  A
C1156      H2441   1.079       .  S
C1157      C2436   1.408   1_556  A
C1158      C2433   1.410       .  A
C1158      C1159   1.499       .  S
C1159      H2443   1.106       .  S
C1159      H1164   1.110       .  S
H1161      C2436   1.080       .  S
C1162      H1166   1.100       .  S
C1162      H1167   1.110       .  S
C1162      H1168   1.103       .  S
H1163      C2439   1.106       .  S
C1169      C1174   1.395       .  A
C1169      H1176   1.085       .  S
C1171      C1178   1.505       .  S
C1172      C1173   1.403       .  A
C1172      H1177   1.083       .  S
C1174      C1175   1.508       .  S
C1175      H1179   1.108       .  S
C1175      H1180   1.106       .  S
C1175      H1181   1.108       .  S
C1178      H1182   1.109       .  S
C1178      H1183   1.110       .  S
C1178      H1184   1.111       .  S
C1185      C1186   1.398       .  A
C1185      C1190   1.388       .  A
C1185      H1192   1.083       .  S
C1186      C1187   1.408       .  A
C1187      C1188   1.404       .  A
C1187      C1194   1.501       .  S
C1188      C1189   1.402       .  A
C1188      H1193   1.081       .  S
C1189      C1190   1.415       .  A
C1190      C1191   1.513       .  S
C1191      H1195   1.111       .  S
C1191      H1196   1.110       .  S
C1191      H1197   1.108       .  S
C1194      H1198   1.110       .  S
C1194      H1199   1.106       .  S
C1194      H1200   1.110   1_565  S
C1201      C1202   1.399       .  A
C1201      C1206   1.409       .  A
C1201      H1208   1.083       .  S
C1202      C1203   1.415       .  A
C1203      C2484   1.405       .  A
C1203      C1210   1.502       .  S
C1204      C2483   1.403       .  A
C1204      C1205   1.398       .  A
C1204      H1209   1.085       .  S
C1205      C2486   1.420   1_455  A
C1206      C2485   1.420       .  A
C1206      C1207   1.505       .  S
C1207      H1211   1.111       .  S
C1207      H1212   1.105       .  S
C1207      H1213   1.098       .  S
C1210      H1214   1.108       .  S
C1210      H1215   1.105       .  S
C1210      H2496   1.110       .  S
H1216      C2490   1.110       .  S
C1217      C1222   1.406       .  A
C1217      H1224   1.084       .  S
C1218      C1219   1.410       .  A
C1219      C1226   1.506       .  S
C1220      C1221   1.403   1_545  A
C1220      H1225   1.084       .  S
C1221      C1222   1.406       .  A
C1222      C1223   1.503       .  S
C1223      H1227   1.111       .  S
C1223      H1228   1.111       .  S
C1223      H1229   1.109       .  S
C1226      H1230   1.110       .  S
C1226      H1231   1.105       .  S
C1226      H1232   1.111       .  S
C1233      C1234   1.408       .  A
C1233      C2518   1.415       .  A
C1233      H1240   1.083       .  S
C1234      C1235   1.410       .  A
C1235      C1236   1.410       .  A
C1235      C1242   1.503       .  S
C1236      C2517   1.421       .  A
C1236      H1241   1.076       .  S
C1237      C2516   1.421   1_455  A
C1237      C1238   1.418       .  A
C1238      C2513   1.415   1_455  A
C1238      C1239   1.494       .  S
C1239      H1243   1.108       .  S
C1239      H1244   1.110       .  S
C1239      H1245   1.107       .  S
C1242      H1246   1.110       .  S
C1242      H1247   1.108       .  S
C1242      H1248   1.110       .  S
C1249      C1250   1.419   1_545  A
C1249      H1256   1.083       .  S
C1250      C1251   1.406       .  A
C1251      C1252   1.393   1_565  A
C1251      C1258   1.501       .  S
C1253      C1254   1.410       .  A
C1254      C1255   1.500       .  S
C1255      H1259   1.110       .  S
C1255      H1260   1.110       .  S
C1255      H1261   1.104       .  S
C1258      H1262   1.106       .  S
C1258      H1263   1.109       .  S
C1258      H1264   1.111       .  S
C1265      C1266   1.405       .  A
C1265      C1270   1.409       .  A
C1265      H1272   1.085       .  S
C1266      C1267   1.415       .  A
C1267      C1268   1.400       .  A
C1267      C1274   1.510   1_455  S
C1268      C1269   1.406       .  A
C1268      H1273   1.073       .  S
C1269      C1270   1.417       .  A
C1270      C1271   1.507       .  S
C1271      H1275   1.111       .  S
C1271      H1276   1.111       .  S
C1271      H1277   1.109       .  S
C1274      H1278   1.109       .  S
C1274      H1279   1.110       .  S
C1274      H1280   1.106   1_655  S
N1281      C1285   1.371       .  A
N1281      C1282   1.372       .  A
N1281      C1573   1.458       .  S
C1282      C1283   1.372       .  A
C1282      C1589   1.494       .  S
C1283      C1284   1.367       .  A
C1283      H1286   1.081       .  S
C1284      C1285   1.374       .  A
C1284      H1287   1.075       .  S
C1285      C1402   1.496       .  S
N1288      C1292   1.375       .  A
N1288      C1289   1.367       .  A
N1288      C1557   1.478       .  S
C1289      C1290   1.378       .  A
C1289      C1586   1.491       .  S
C1290      C1291   1.362       .  A
C1290      H1293   1.079       .  S
C1291      C1292   1.385       .  A
C1291      H1294   1.084       .  S
C1292      C1338   1.490       .  S
N1295      C1299   1.369       .  A
N1295      C1296   1.373       .  A
N1295      C1554   1.460       .  S
C1296      C1297   1.383       .  A
C1296      C1397   1.493       .  S
C1297      C1298   1.362       .  A
C1297      H1300   1.076       .  S
C1298      C1299   1.369       .  A
C1298      H1301   1.082       .  S
C1299      C1538   1.481       .  S
N1302      C1306   1.352       .  A
N1302      C1303   1.357       .  A
N1302      C1522   1.444       .  S
C1303      C1304   1.381       .  A
C1303      C1506   1.470       .  S
C1304      C1305   1.370       .  A
C1304      H1307   1.083       .  S
C1305      C1306   1.382       .  A
C1305      H1308   1.081       .  S
C1306      C1406   1.472       .  S
N1309      C1313   1.351       .  A
N1309      C1310   1.356       .  A
N1309      C1541   1.436       .  S
C1310      C1311   1.381       .  A
C1310      C1509   1.471       .  S
C1311      C1312   1.364       .  A
C1311      H1314   1.083       .  S
C1312      C1313   1.379       .  A
C1312      H1315   1.079       .  S
C1313      C1342   1.467       .  S
N1316      C1320   1.370       .  A
N1316      C1317   1.365       .  A
N1316      C1570   1.456       .  S
C1317      C1318   1.386       .  A
C1317      C1333   1.478       .  S
C1318      C1319   1.366       .  A
C1318      H1321   1.083       .  S
C1319      C1320   1.372       .  A
C1319      H1322   1.082       .  S
C1320      C1525   1.491       .  S
Fe1323     O1339   2.101       .  S
Fe1323     O1329   2.095       .  S
Fe1323     O1336   2.123       .  S
Fe1323     O1328   2.061       .  S
Fe1323     O1334   1.945       .  S
Fe1324     O1327   2.022       .  S
Fe1324     O1331   2.107       .  S
Fe1324     O1335   2.060       .  S
Fe1324     O1340   2.068       .  S
Fe1324     O1334   1.931       .  S
Fe1325     O1343   2.098       .  S
Fe1325     O1330   2.055       .  S
Fe1325     O1337   2.058       .  S
Fe1325     O1326   2.114       .  S
Fe1325     O1334   1.946       .  S
O1326      C1333   1.283       .  A
O1327      C1341   1.269       .  A
O1328      C1333   1.279       .  A
O1329      C1332   1.269       .  A
O1330      C1342   1.265       .  A
O1331      C1344   1.274       .  A
C1332      C1367   1.477       .  S
C1332      O1337   1.261       .  A
O1335      C1338   1.266       .  A
O1336      C1338   1.281       .  A
O1339      C1344   1.276       .  A
O1340      C1342   1.270       .  A
C1341      C1356   1.466       .  S
C1341      O1343   1.279       .  A
C1344      C1384   1.490       .  S
N1345      C1349   1.366   1_554  A
N1345      C1346   1.370       .  A
N1345      C1474   1.464       .  S
C1346      C1347   1.389       .  A
C1346      C1396   1.497       .  S
C1347      C1348   1.363   1_554  A
C1347      H1350   1.083       .  S
C1348      C1349   1.375       .  A
C1348      H1351   1.083       .  S
C1349      C1490   1.472       .  S
N1352      C1356   1.354       .  A
N1352      C1353   1.356       .  A
N1352      C1493   1.430       .  S
C1353      C1354   1.393       .  A
C1353      C1458   1.494       .  S
C1354      C1355   1.362       .  A
C1354      H1357   1.080       .  S
C1355      C1356   1.377       .  A
C1355      H1358   1.083       .  S
N1359      C1363   1.354       .  A
N1359      C1360   1.353       .  A
N1359      C1442   1.425       .  S
C1360      C1361   1.385       .  A
C1360      C1461   1.489       .  S
C1361      C1362   1.373       .  A
C1361      H1364   1.082       .  S
C1362      C1363   1.383       .  A
C1362      H1365   1.083       .  S
C1363      C1405   1.477       .  S
N1366      C1370   1.362       .  A
N1366      C1367   1.361       .  A
N1366      C1746   1.460       .  S
C1367      C1368   1.389       .  A
C1368      C1369   1.367       .  A
C1368      H1371   1.081       .  S
C1369      C1370   1.370       .  A
C1369      H1372   1.080       .  S
C1370      C1765   1.473       .  S
N1373      C1377   1.360       .  A
N1373      C1374   1.373       .  A
N1373      C1429   1.465       .  S
C1374      C1375   1.379       .  A
C1374      C1410   1.514       .  S
C1375      C1376   1.365       .  A
C1375      H1378   1.083       .  S
C1376      C1377   1.379       .  A
C1376      H1379   1.073       .  S
C1377      C1408   1.489       .  S
N1380      C1384   1.374       .  A
N1380      C1381   1.374       .  A
N1380      C1477   1.467       .  S
C1381      C1382   1.375       .  A
C1381      C1413   1.485       .  S
C1382      C1383   1.361       .  A
C1382      H1385   1.083       .  S
C1383      C1384   1.380       .  A
C1383      H1386   1.077       .  S
Fe1387     O1403   2.093       .  S
Fe1387     O1393   2.044       .  S
Fe1387     O1400   2.095       .  S
Fe1387     O1392   2.120       .  S
Fe1387     O1398   1.934       .  S
Fe1388     O1391   2.084       .  S
Fe1388     O1395   2.067       .  S
Fe1388     O1399   2.100       .  S
Fe1388     O1404   2.064       .  S
Fe1388     O1398   1.939       .  S
Fe1389     O1407   2.087       .  S
Fe1389     O1394   2.077       .  S
Fe1389     O1401   2.102       .  S
Fe1389     O1390   2.097       .  S
Fe1389     O1398   1.994       .  S
O1390      C1397   1.281       .  A
O1391      C1405   1.282       .  A
O1392      C1397   1.288       .  A
O1393      C1396   1.261       .  A
O1394      C1406   1.260       .  A
O1395      C1408   1.267       .  A
C1396      O1401   1.263       .  A
O1399      C1402   1.278       .  A
O1400      C1402   1.277       .  A
O1403      C1408   1.274       .  A
O1404      C1406   1.264       .  A
C1405      O1407   1.283       .  A
C1409      C1410   1.404       .  A
C1409      C1734   1.411   1_554  A
C1409      H1416   1.081   1_554  S
C1410      C1411   1.440       .  A
C1411      C1412   1.400       .  A
C1411      C1418   1.515       .  S
C1412      C1733   1.390       .  A
C1412      H1417   1.085       .  S
C1413      C1732   1.391       .  A
C1413      C1414   1.421       .  A
C1414      C1729   1.410       .  A
C1414      C1415   1.507       .  S
C1415      H1419   1.110       .  S
C1415      H1420   1.109       .  S
C1415      H1421   1.111       .  S
C1418      H1422   1.109       .  S
C1418      H1423   1.106       .  S
C1418      H1424   1.111       .  S
C1425      C1426   1.403       .  A
C1425      C1430   1.398       .  A
C1425      H1432   1.082       .  S
C1426      N1686   1.460   1_554  S
C1426      C1747   1.412   1_554  A
C1427      C1746   1.412       .  A
C1427      C2388   1.422       .  A
C1427      C1434   1.502       .  S
C1428      C2387   1.421   1_544  A
C1428      C1429   1.414       .  A
C1428      H1753   1.080       .  S
C1429      C2070   1.431   1_545  A
C1430      C2069   1.430       .  A
C1430      C1431   1.519       .  S
C1431      H1435   1.108       .  S
C1431      H2076   1.109       .  S
C1431      H2077   1.097       .  S
H1433      C1748   1.080       .  S
C1434      H1438   1.111       .  S
C1434      H1439   1.109       .  S
C1434      H2080   1.111       .  S
H1436      C2071   1.109       .  S
H1437      C2071   1.097       .  S
H1440      C2074   1.111   1_545  S
C1441      C1442   1.396       .  A
C1441      C1766   1.398   1_554  A
C1441      H1448   1.083   1_554  S
C1442      C1443   1.398       .  A
C1443      C1450   1.495       .  S
C1444      C1445   1.399       .  A
C1444      H1449   1.072       .  S
C1445      C1690   1.473       .  S
C1446      C1761   1.399       .  A
C1446      C1447   1.505       .  S
C1447      H1451   1.111       .  S
C1447      H1452   1.107   1_655  S
C1447      H1453   1.109   1_655  S
C1450      H1454   1.102       .  S
C1450      H1455   1.110       .  S
C1457      C1458   1.403       .  A
C1457      C1782   1.412       .  A
C1457      H1464   1.084       .  S
C1458      C1779   1.406       .  A
C1459      C1778   1.407   1_554  A
C1459      C1460   1.402       .  A
C1459      C1466   1.496       .  S
C1460      C1461   1.406       .  A
C1460      H1465   1.084       .  S
C1461      C1462   1.422   1_554  A
C1462      C1777   1.412       .  A
C1462      C1783   1.497       .  S
C1463      C1782   1.497       .  S
C1463      H1467   1.111       .  S
C1463      H1468   1.109       .  S
C1463      H1469   1.105       .  S
C1466      H1470   1.107       .  S
C1466      H1471   1.107       .  S
C1466      H1472   1.110       .  S
C1473      C1474   1.410       .  A
C1473      H1480   1.080       .  S
C1474      C1475   1.419       .  A
C1475      C1796   1.413       .  A
C1475      C1482   1.499       .  S
C1476      C1795   1.412   1_455  A
C1477      C1798   1.416       .  A
C1478      C1797   1.417       .  A
C1478      C1479   1.499       .  S
C1479      H1484   1.110       .  S
C1479      H1805   1.103       .  S
C1482      H1486   1.100       .  S
C1482      H1487   1.110       .  S
C1482      H1488   1.100       .  S
H1485      C1799   1.103       .  S
C1489      C2130   1.400   1_554  A
C1489      C1494   1.393   1_554  A
C1489      H1496   1.085       .  S
C1490      C2129   1.401   1_546  A
C1490      C1811   1.409       .  A
C1491      C1810   1.409       .  A
C1491      C2132   1.406   1_545  A
C1491      C1498   1.505       .  S
C1492      C2131   1.407       .  A
C1492      C1493   1.403       .  A
C1492      H1497   1.084       .  S
C1493      C1814   1.412       .  A
C1494      C1813   1.411       .  A
C1494      C1495   1.509   1_556  S
C1495      H1499   1.108       .  S
C1495      H1500   1.107       .  S
C1495      H1501   1.107       .  S
C1498      H1502   1.109       .  S
C1498      H1503   1.110       .  S
C1498      H1504   1.111       .  S
C1505      C1506   1.398       .  A
C1505      C1510   1.387       .  A
C1505      H1512   1.083       .  S
C1506      C1507   1.410       .  A
C1507      C1508   1.405       .  A
C1507      C1514   1.502       .  S
C1508      C1509   1.403       .  A
C1508      H1513   1.081       .  S
C1509      C1510   1.416       .  A
C1510      C1511   1.513       .  S
C1511      H1515   1.111       .  S
C1511      H1516   1.110       .  S
C1511      H1517   1.108       .  S
C1514      H1518   1.109       .  S
C1514      H1519   1.106   1_655  S
C1514      H1520   1.110       .  S
C1521      C1522   1.399       .  A
C1521      C1526   1.409       .  A
C1521      H1528   1.083       .  S
C1522      C1523   1.415   1_655  A
C1523      C1530   1.502       .  S
C1524      C1525   1.400       .  A
C1524      H1529   1.085       .  S
C1526      C1527   1.505       .  S
C1527      H1531   1.111       .  S
C1527      H1532   1.106       .  S
C1527      H1533   1.097       .  S
C1530      H1534   1.107       .  S
C1530      H1535   1.105       .  S
C1537      C2178   1.406       .  A
C1537      C1542   1.406       .  A
C1537      H1544   1.084       .  S
C1538      C2177   1.406   1_545  A
C1538      C1539   1.411       .  A
C1539      C2180   1.401       .  A
C1539      C1546   1.506       .  S
C1540      C2179   1.399       .  A
C1540      C1541   1.404       .  A
C1540      H1545   1.084       .  S
C1541      C1542   1.406       .  A
C1542      C1543   1.504       .  S
C1543      H1547   1.111       .  S
C1543      H1548   1.111       .  S
C1543      H1549   1.108       .  S
C1546      H1550   1.110       .  S
C1546      H1551   1.105       .  S
C1546      H1552   1.111       .  S
C1553      C1554   1.409       .  A
C1553      H1560   1.083       .  S
C1554      C1555   1.411       .  A
C1555      C1556   1.410       .  A
C1555      C1562   1.503       .  S
C1556      H1561   1.076       .  S
C1557      C1558   1.419       .  A
C1558      C1559   1.494       .  S
C1559      H1563   1.107       .  S
C1559      H1564   1.110       .  S
C1559      H1565   1.109       .  S
C1562      H1566   1.110       .  S
C1562      H1567   1.109       .  S
C1562      H1568   1.110       .  S
C1569      C1570   1.419       .  A
C1569      C2214   1.419       .  A
C1569      H1576   1.083       .  S
C1570      C1571   1.402       .  A
C1571      C1572   1.391       .  A
C1571      C1578   1.500       .  S
C1572      C2213   1.410       .  A
C1572      H2217   1.072       .  S
C1573      C2212   1.410       .  A
C1573      C1574   1.410       .  A
C1574      C2209   1.419       .  A
C1574      C1575   1.499       .  S
C1575      H1579   1.110       .  S
C1575      H1580   1.110       .  S
C1575      H1581   1.104       .  S
H1577      C2212   1.079   1_565  S
C1578      H1582   1.107       .  S
C1578      H1583   1.108       .  S
C1578      H1584   1.111       .  S
C1585      C1586   1.406       .  A
C1585      C1590   1.409       .  A
C1585      H1592   1.085       .  S
C1586      C1587   1.414       .  A
C1587      C1588   1.400       .  A
C1587      C1594   1.511       .  S
C1588      C1589   1.406       .  A
C1588      H1593   1.070       .  S
C1589      C1590   1.417       .  A
C1590      C1591   1.508       .  S
C1591      H1595   1.111       .  S
C1591      H1596   1.111       .  S
C1591      H1597   1.109       .  S
C1594      H1598   1.109       .  S
C1594      H1599   1.110       .  S
C1594      H1600   1.105       .  S
N1601      C1605   1.372       .  A
N1601      C1602   1.372       .  A
N1601      C1893   1.460       .  S
C1602      C1603   1.371       .  A
C1602      C1909   1.493       .  S
C1603      C1604   1.367       .  A
C1603      H1606   1.080       .  S
C1604      C1605   1.376       .  A
C1604      H1607   1.077       .  S
C1605      C1722   1.497       .  S
N1608      C1612   1.375       .  A
N1608      C1609   1.366       .  A
N1608      C1877   1.478       .  S
C1609      C1610   1.377       .  A
C1609      C1906   1.488       .  S
C1610      C1611   1.362       .  A
C1610      H1613   1.080       .  S
C1611      C1612   1.385       .  A
C1611      H1614   1.084       .  S
C1612      C1658   1.488       .  S
N1615      C1619   1.367       .  A
N1615      C1616   1.370       .  A
N1615      C1874   1.457       .  S
C1616      C1617   1.380       .  A
C1616      C1717   1.487       .  S
C1617      C1618   1.360       .  A
C1617      H1620   1.073       .  S
C1618      C1619   1.368       .  A
C1618      H1621   1.082       .  S
C1619      C1858   1.477       .  S
N1622      C1626   1.351       .  A
N1622      C1623   1.356       .  A
N1622      C1842   1.444       .  S
C1623      C1624   1.382       .  A
C1623      C1826   1.469       .  S
C1624      C1625   1.370       .  A
C1624      H1627   1.083       .  S
C1625      C1626   1.381       .  A
C1625      H1628   1.082       .  S
C1626      C1726   1.468       .  S
N1629      C1633   1.350       .  A
N1629      C1630   1.356       .  A
N1629      C1861   1.437       .  S
C1630      C1631   1.381       .  A
C1630      C1829   1.470       .  S
C1631      C1632   1.365       .  A
C1631      H1634   1.083       .  S
C1632      C1633   1.380       .  A
C1632      H1635   1.078       .  S
C1633      C1662   1.468       .  S
N1636      C1640   1.371       .  A
N1636      C1637   1.368       .  A
N1636      C1890   1.458       .  S
C1637      C1638   1.385       .  A
C1637      C1653   1.481       .  S
C1638      C1639   1.366       .  A
C1638      H1641   1.083       .  S
C1639      C1640   1.372       .  A
C1639      H1642   1.081       .  S
C1640      C1845   1.492       .  S
Fe1643     O1659   2.100       .  S
Fe1643     O1649   2.096       .  S
Fe1643     O1656   2.124       .  S
Fe1643     O1648   2.064       .  S
Fe1643     O1654   1.946       .  S
Fe1644     O1647   2.021       .  S
Fe1644     O1651   2.106       .  S
Fe1644     O1655   2.057       .  S
Fe1644     O1660   2.069       .  S
Fe1644     O1654   1.933       .  S
Fe1645     O1663   2.106       .  S
Fe1645     O1650   2.052       .  S
Fe1645     O1657   2.053       .  S
Fe1645     O1646   2.120       .  S
Fe1645     O1654   1.946       .  S
O1646      C1653   1.285       .  A
O1647      C1661   1.269       .  A
O1648      C1653   1.279       .  A
O1649      C1652   1.270       .  A
O1650      C1662   1.264       .  A
O1651      C1664   1.273       .  A
C1652      C1687   1.476       .  S
C1652      O1657   1.261       .  A
O1655      C1658   1.266       .  A
O1656      C1658   1.282       .  A
O1659      C1664   1.275       .  A
O1660      C1662   1.270       .  A
C1661      C1676   1.469       .  S
C1661      O1663   1.281       .  A
C1664      C1704   1.488       .  S
N1665      C1669   1.366       .  A
N1665      C1666   1.370       .  A
N1665      C1794   1.465       .  S
C1666      C1667   1.389       .  A
C1666      C1716   1.494       .  S
C1667      C1668   1.363       .  A
C1667      H1670   1.083       .  S
C1668      C1669   1.374       .  A
C1668      H1671   1.083       .  S
C1669      C1810   1.472       .  S
N1672      C1676   1.353       .  A
N1672      C1673   1.356       .  A
N1672      C1813   1.428       .  S
C1673      C1674   1.392       .  A
C1673      C1778   1.494       .  S
C1674      C1675   1.363       .  A
C1674      H1677   1.080       .  S
C1675      C1676   1.378       .  A
C1675      H1678   1.083       .  S
N1679      C1683   1.353       .  A
N1679      C1680   1.353       .  A
N1679      C1762   1.425       .  S
C1680      C1681   1.385       .  A
C1680      C1781   1.489       .  S
C1681      C1682   1.374       .  A
C1681      H1684   1.083       .  S
C1682      C1683   1.383       .  A
C1682      H1685   1.083       .  S
C1683      C1725   1.476       .  S
N1686      C1690   1.362   1_556  A
N1686      C1687   1.360       .  A
C1687      C1688   1.389       .  A
C1688      C1689   1.367   1_556  A
C1688      H1691   1.080       .  S
C1689      C1690   1.370       .  A
C1689      H1692   1.080       .  S
N1693      C1697   1.359       .  A
N1693      C1694   1.372       .  A
N1693      C1749   1.463       .  S
C1694      C1695   1.380       .  A
C1694      C1730   1.511       .  S
C1695      C1696   1.366       .  A
C1695      H1698   1.083       .  S
C1696      C1697   1.379       .  A
C1696      H1699   1.074       .  S
C1697      C1728   1.487       .  S
N1700      C1704   1.374       .  A
N1700      C1701   1.373       .  A
N1700      C1797   1.467       .  S
C1701      C1702   1.375       .  A
C1701      C1733   1.484   1_556  S
C1702      C1703   1.360       .  A
C1702      H1705   1.083   1_556  S
C1703      C1704   1.380       .  A
C1703      H1706   1.077       .  S
Fe1707     O1723   2.088       .  S
Fe1707     O1713   2.048       .  S
Fe1707     O1720   2.099       .  S
Fe1707     O1712   2.120       .  S
Fe1707     O1718   1.929       .  S
Fe1708     O1711   2.089       .  S
Fe1708     O1715   2.068       .  S
Fe1708     O1719   2.099       .  S
Fe1708     O1724   2.063       .  S
Fe1708     O1718   1.935       .  S
Fe1709     O1727   2.082       .  S
Fe1709     O1714   2.071       .  S
Fe1709     O1721   2.095       .  S
Fe1709     O1710   2.087       .  S
Fe1709     O1718   1.992       .  S
O1710      C1717   1.280       .  A
O1711      C1725   1.284       .  A
O1712      C1717   1.289       .  A
O1713      C1716   1.261       .  A
O1714      C1726   1.258       .  A
O1715      C1728   1.267       .  A
C1716      O1721   1.260       .  A
O1719      C1722   1.278       .  A
O1720      C1722   1.278       .  A
O1723      C1728   1.273       .  A
O1724      C1726   1.262       .  A
C1725      O1727   1.283       .  A
C1729      C1730   1.403       .  A
C1729      H1736   1.081       .  S
C1730      C1731   1.438       .  A
C1731      C1732   1.400       .  A
C1731      C1738   1.514       .  S
C1732      H1737   1.085       .  S
C1733      C1734   1.420   1_554  A
C1734      C1735   1.507       .  S
C1735      H1739   1.110       .  S
C1735      H1740   1.109       .  S
C1735      H1741   1.111       .  S
C1738      H1742   1.109       .  S
C1738      H1743   1.107       .  S
C1738      H1744   1.111       .  S
C1745      C1746   1.403       .  A
C1745      C1750   1.399       .  A
C1745      H1752   1.082       .  S
C1747      C2068   1.421   1_556  A
C1747      C1754   1.502       .  S
C1748      C2067   1.421   1_545  A
C1748      C1749   1.414       .  A
C1749      C2390   1.430   1_545  A
C1750      C2389   1.430       .  A
C1750      C1751   1.518       .  S
C1751      H1755   1.108       .  S
C1751      H2396   1.109       .  S
C1751      H2397   1.097       .  S
C1754      H1758   1.111       .  S
C1754      H1759   1.110       .  S
C1754      H2400   1.111       .  S
H1756      C2391   1.109       .  S
H1757      C2391   1.097       .  S
H1760      C2394   1.111   1_545  S
C1761      C1762   1.397       .  A
C1761      H1768   1.084       .  S
C1762      C1763   1.398       .  A
C1763      C1770   1.497       .  S
C1764      C1765   1.400       .  A
C1764      H1769   1.072       .  S
C1766      C1767   1.504       .  S
C1767      H1771   1.111       .  S
C1767      H1772   1.107   1_655  S
C1767      H1773   1.108   1_655  S
C1770      H1774   1.104       .  S
C1770      H1775   1.110       .  S
C1777      C1778   1.403       .  A
C1777      H1784   1.084       .  S
C1779      C1780   1.401       .  A
C1779      C1786   1.495       .  S
C1780      C1781   1.407       .  A
C1780      H1785   1.084       .  S
C1781      C1782   1.423       .  A
C1783      H1787   1.111       .  S
C1783      H1788   1.108       .  S
C1783      H1789   1.106       .  S
C1786      H1790   1.106       .  S
C1786      H1791   1.107       .  S
C1786      H1792   1.110       .  S
C1793      C1794   1.410       .  A
C1793      H1800   1.080       .  S
C1794      C1795   1.420       .  A
C1795      C1802   1.500       .  S
C1798      C1799   1.499       .  S
C1799      H1804   1.110       .  S
C1802      H1806   1.100       .  S
C1802      H1807   1.109       .  S
C1802      H1808   1.103       .  S
C1809      C2450   1.400       .  A
C1809      C1814   1.394       .  A
C1809      H1816   1.085       .  S
C1810      C2449   1.400   1_545  A
C1811      C2452   1.406   1_545  A
C1811      C1818   1.505       .  S
C1812      C2451   1.406       .  A
C1812      C1813   1.402       .  A
C1812      H1817   1.084       .  S
C1814      C1815   1.508       .  S
C1815      H1819   1.108       .  S
C1815      H1820   1.107       .  S
C1815      H1821   1.108       .  S
C1818      H1822   1.109       .  S
C1818      H1823   1.110       .  S
C1818      H1824   1.111       .  S
C1825      C1826   1.398       .  A
C1825      C1830   1.389       .  A
C1825      H1832   1.084       .  S
C1826      C1827   1.409       .  A
C1827      C1828   1.404       .  A
C1827      C1834   1.500       .  S
C1828      C1829   1.402       .  A
C1828      H1833   1.082       .  S
C1829      C1830   1.418       .  A
C1830      C1831   1.513       .  S
C1831      H1835   1.111       .  S
C1831      H1836   1.110       .  S
C1831      H1837   1.108       .  S
C1834      H1838   1.109       .  S
C1834      H1839   1.106   1_655  S
C1834      H1840   1.111       .  S
C1841      C1842   1.399       .  A
C1841      C1846   1.408       .  A
C1841      H1848   1.084       .  S
C1842      C1843   1.415   1_655  A
C1843      C1850   1.503       .  S
C1844      C1845   1.400       .  A
C1844      H1849   1.085       .  S
C1846      C1847   1.506       .  S
C1847      H1851   1.110       .  S
C1847      H1852   1.108   1_655  S
C1847      H1853   1.110       .  S
C1850      H1854   1.107       .  S
C1850      H1855   1.107       .  S
C1857      C2498   1.407       .  A
C1857      C1862   1.407       .  A
C1857      H1864   1.084       .  S
C1858      C2497   1.406   1_545  A
C1858      C1859   1.410       .  A
C1859      C2500   1.399   1_545  A
C1859      C1866   1.506       .  S
C1860      C2499   1.402       .  A
C1860      C1861   1.404       .  A
C1860      H1865   1.084       .  S
C1861      C1862   1.406       .  A
C1862      C1863   1.503       .  S
C1863      H1867   1.111       .  S
C1863      H1868   1.111       .  S
C1863      H1869   1.109       .  S
C1866      H1870   1.110       .  S
C1866      H1871   1.104       .  S
C1866      H1872   1.111       .  S
C1873      C1874   1.408       .  A
C1873      H1880   1.083       .  S
C1874      C1875   1.408       .  A
C1875      C1876   1.409       .  A
C1875      C1882   1.503       .  S
C1876      H1881   1.074   1_655  S
C1877      C1878   1.416       .  A
C1878      C1879   1.492       .  S
C1879      H1883   1.105       .  S
C1879      H1884   1.109       .  S
C1879      H1885   1.109       .  S
C1882      H1886   1.110       .  S
C1882      H1887   1.108       .  S
C1882      H1888   1.110       .  S
C1889      C1890   1.419       .  A
C1889      C2534   1.419       .  A
C1889      H1896   1.083       .  S
C1890      C1891   1.405       .  A
C1891      C1892   1.392       .  A
C1891      C1898   1.501       .  S
C1892      C2533   1.410       .  A
C1892      H2537   1.080       .  S
C1893      C2532   1.410       .  A
C1893      C1894   1.410       .  A
C1894      C2529   1.419       .  A
C1894      C1895   1.499       .  S
C1895      H1899   1.110       .  S
C1895      H1900   1.110       .  S
C1895      H1901   1.102       .  S
H1897      C2532   1.071   1_565  S
C1898      H1902   1.107       .  S
C1898      H1903   1.108       .  S
C1898      H1904   1.110       .  S
C1905      C1906   1.406       .  A
C1905      C1910   1.410       .  A
C1905      H1912   1.084       .  S
C1906      C1907   1.411       .  A
C1907      C1908   1.399       .  A
C1907      C1914   1.510       .  S
C1908      C1909   1.407       .  A
C1908      H1913   1.071       .  S
C1909      C1910   1.416       .  A
C1910      C1911   1.507       .  S
C1911      H1915   1.110       .  S
C1911      H1916   1.110       .  S
C1911      H1917   1.109       .  S
C1914      H1918   1.108       .  S
C1914      H1919   1.110       .  S
C1914      H1920   1.106       .  S
N1921      C1925   1.372       .  A
N1921      C1922   1.372       .  A
N1921      C2213   1.460       .  S
C1922      C1923   1.371       .  A
C1922      C2229   1.493       .  S
C1923      C1924   1.367       .  A
C1923      H1926   1.080       .  S
C1924      C1925   1.376       .  A
C1924      H1927   1.077       .  S
C1925      C2042   1.497       .  S
N1928      C1932   1.375       .  A
N1928      C1929   1.366       .  A
N1928      C2197   1.478       .  S
C1929      C1930   1.377       .  A
C1929      C2226   1.488       .  S
C1930      C1931   1.362       .  A
C1930      H1933   1.080       .  S
C1931      C1932   1.386       .  A
C1931      H1934   1.084       .  S
C1932      C1978   1.489       .  S
N1935      C1939   1.367       .  A
N1935      C1936   1.369       .  A
N1935      C2194   1.457       .  S
C1936      C1937   1.380       .  A
C1936      C2037   1.486       .  S
C1937      C1938   1.360       .  A
C1937      H1940   1.073       .  S
C1938      C1939   1.368       .  A
C1938      H1941   1.082       .  S
C1939      C2178   1.477       .  S
N1942      C1946   1.351       .  A
N1942      C1943   1.356       .  A
N1942      C2162   1.444       .  S
C1943      C1944   1.382       .  A
C1943      C2146   1.469       .  S
C1944      C1945   1.370       .  A
C1944      H1947   1.083       .  S
C1945      C1946   1.381       .  A
C1945      H1948   1.082       .  S
C1946      C2046   1.468       .  S
N1949      C1953   1.350       .  A
N1949      C1950   1.356       .  A
N1949      C2181   1.437       .  S
C1950      C1951   1.381       .  A
C1950      C2149   1.470       .  S
C1951      C1952   1.365       .  A
C1951      H1954   1.083       .  S
C1952      C1953   1.380       .  A
C1952      H1955   1.078       .  S
C1953      C1982   1.467       .  S
N1956      C1960   1.371       .  A
N1956      C1957   1.368       .  A
N1956      C2210   1.458       .  S
C1957      C1958   1.385       .  A
C1957      C1973   1.481       .  S
C1958      C1959   1.366       .  A
C1958      H1961   1.083       .  S
C1959      C1960   1.372       .  A
C1959      H1962   1.081       .  S
C1960      C2165   1.492       .  S
Fe1963     O1979   2.100       .  S
Fe1963     O1969   2.097       .  S
Fe1963     O1976   2.125       .  S
Fe1963     O1968   2.064       .  S
Fe1963     O1974   1.946       .  S
Fe1964     O1967   2.021       .  S
Fe1964     O1971   2.105       .  S
Fe1964     O1975   2.057       .  S
Fe1964     O1980   2.066       .  S
Fe1964     O1974   1.933       .  S
Fe1965     O1983   2.105       .  S
Fe1965     O1970   2.053       .  S
Fe1965     O1977   2.054       .  S
Fe1965     O1966   2.119       .  S
Fe1965     O1974   1.946       .  S
O1966      C1973   1.285       .  A
O1967      C1981   1.269       .  A
O1968      C1973   1.279       .  A
O1969      C1972   1.270       .  A
O1970      C1982   1.264       .  A
O1971      C1984   1.273       .  A
C1972      C2007   1.477       .  S
C1972      O1977   1.261       .  A
O1975      C1978   1.266       .  A
O1976      C1978   1.282       .  A
O1979      C1984   1.275       .  A
O1980      C1982   1.269       .  A
C1981      C1996   1.469       .  S
C1981      O1983   1.281       .  A
C1984      C2024   1.488       .  S
N1985      C1989   1.366   1_554  A
N1985      C1986   1.370       .  A
N1985      C2114   1.465       .  S
C1986      C1987   1.389       .  A
C1986      C2036   1.495       .  S
C1987      C1988   1.363   1_554  A
C1987      H1990   1.083       .  S
C1988      C1989   1.374       .  A
C1988      H1991   1.083       .  S
C1989      C2130   1.471       .  S
N1992      C1996   1.353       .  A
N1992      C1993   1.356       .  A
N1992      C2133   1.428       .  S
C1993      C1994   1.392       .  A
C1993      C2098   1.494       .  S
C1994      C1995   1.363       .  A
C1994      H1997   1.080       .  S
C1995      C1996   1.378       .  A
C1995      H1998   1.083       .  S
N1999      C2003   1.353       .  A
N1999      C2000   1.352       .  A
N1999      C2082   1.425       .  S
C2000      C2001   1.385       .  A
C2000      C2101   1.489       .  S
C2001      C2002   1.374       .  A
C2001      H2004   1.083       .  S
C2002      C2003   1.383       .  A
C2002      H2005   1.083       .  S
C2003      C2045   1.475       .  S
N2006      C2010   1.362       .  A
N2006      C2007   1.361       .  A
N2006      C2386   1.460       .  S
C2007      C2008   1.389       .  A
C2008      C2009   1.367       .  A
C2008      H2011   1.080       .  S
C2009      C2010   1.370       .  A
C2009      H2012   1.080       .  S
C2010      C2405   1.473       .  S
N2013      C2017   1.359       .  A
N2013      C2014   1.371       .  A
N2013      C2069   1.463       .  S
C2014      C2015   1.380       .  A
C2014      C2050   1.510       .  S
C2015      C2016   1.366       .  A
C2015      H2018   1.083       .  S
C2016      C2017   1.379       .  A
C2016      H2019   1.073       .  S
C2017      C2048   1.487       .  S
N2020      C2024   1.374       .  A
N2020      C2021   1.373       .  A
N2020      C2117   1.466       .  S
C2021      C2022   1.375       .  A
C2021      C2053   1.484       .  S
C2022      C2023   1.360       .  A
C2022      H2025   1.083       .  S
C2023      C2024   1.380       .  A
C2023      H2026   1.077       .  S
Fe2027     O2043   2.089       .  S
Fe2027     O2033   2.048       .  S
Fe2027     O2040   2.099       .  S
Fe2027     O2032   2.120       .  S
Fe2027     O2038   1.929       .  S
Fe2028     O2031   2.089       .  S
Fe2028     O2035   2.068       .  S
Fe2028     O2039   2.099       .  S
Fe2028     O2044   2.064       .  S
Fe2028     O2038   1.935       .  S
Fe2029     O2047   2.081       .  S
Fe2029     O2034   2.070       .  S
Fe2029     O2041   2.095       .  S
Fe2029     O2030   2.086       .  S
Fe2029     O2038   1.992       .  S
O2030      C2037   1.280       .  A
O2031      C2045   1.284       .  A
O2032      C2037   1.289       .  A
O2033      C2036   1.261       .  A
O2034      C2046   1.258       .  A
O2035      C2048   1.267       .  A
C2036      O2041   1.260       .  A
O2039      C2042   1.278       .  A
O2040      C2042   1.278       .  A
O2043      C2048   1.273       .  A
O2044      C2046   1.263       .  A
C2045      O2047   1.283       .  A
C2049      C2050   1.403       .  A
C2049      C2374   1.410   1_554  A
C2049      H2056   1.081   1_554  S
C2050      C2051   1.438       .  A
C2051      C2052   1.400       .  A
C2051      C2058   1.514       .  S
C2052      C2373   1.391       .  A
C2052      H2057   1.085       .  S
C2053      C2372   1.390       .  A
C2053      C2054   1.420       .  A
C2054      C2369   1.411       .  A
C2054      C2055   1.507       .  S
C2055      H2059   1.110       .  S
C2055      H2060   1.109       .  S
C2055      H2061   1.111       .  S
C2058      H2062   1.109       .  S
C2058      H2063   1.107       .  S
C2058      H2064   1.111       .  S
C2065      C2066   1.403       .  A
C2065      C2070   1.399       .  A
C2065      H2072   1.083       .  S
C2066      N2326   1.460   1_554  S
C2066      C2387   1.412   1_554  A
C2067      C2386   1.411       .  A
C2067      C2074   1.502       .  S
C2068      C2069   1.414       .  A
C2068      H2393   1.080       .  S
C2070      C2071   1.519       .  S
C2071      H2075   1.108       .  S
H2073      C2388   1.080       .  S
C2074      H2078   1.111       .  S
C2074      H2079   1.110       .  S
C2081      C2082   1.397       .  A
C2081      C2406   1.399   1_554  A
C2081      H2088   1.083   1_554  S
C2082      C2083   1.398       .  A
C2083      C2090   1.497       .  S
C2084      C2085   1.400       .  A
C2084      H2089   1.072       .  S
C2085      C2330   1.474       .  S
C2086      C2401   1.398       .  A
C2086      C2087   1.504       .  S
C2087      H2091   1.111       .  S
C2087      H2092   1.107   1_655  S
C2087      H2093   1.108   1_655  S
C2090      H2094   1.104       .  S
C2090      H2095   1.110       .  S
C2097      C2098   1.403       .  A
C2097      C2422   1.412       .  A
C2097      H2104   1.084       .  S
C2098      C2419   1.407       .  A
C2099      C2418   1.406   1_554  A
C2099      C2100   1.401       .  A
C2099      C2106   1.496       .  S
C2100      C2101   1.407       .  A
C2100      H2105   1.084       .  S
C2101      C2102   1.423   1_554  A
C2102      C2417   1.412       .  A
C2102      C2423   1.497       .  S
C2103      C2422   1.497       .  S
C2103      H2107   1.111       .  S
C2103      H2108   1.108       .  S
C2103      H2109   1.106       .  S
C2106      H2110   1.106       .  S
C2106      H2111   1.107       .  S
C2106      H2112   1.110       .  S
C2113      C2114   1.411       .  A
C2113      H2120   1.080       .  S
C2114      C2115   1.420       .  A
C2115      C2436   1.413   1_655  A
C2115      C2122   1.500       .  S
C2116      C2435   1.413       .  A
C2117      C2438   1.416       .  A
C2118      C2437   1.416       .  A
C2118      C2119   1.499       .  S
C2119      H2124   1.110       .  S
C2119      H2445   1.103       .  S
C2122      H2126   1.100       .  S
C2122      H2127   1.109       .  S
C2122      H2128   1.103       .  S
H2125      C2439   1.103       .  S
C2129      C2134   1.394   1_554  A
C2129      H2136   1.085       .  S
C2130      C2451   1.409       .  A
C2131      C2450   1.409       .  A
C2131      C2138   1.505       .  S
C2132      C2133   1.402       .  A
C2132      H2137   1.084       .  S
C2133      C2454   1.411       .  A
C2134      C2453   1.412       .  A
C2134      C2135   1.509   1_556  S
C2135      H2139   1.108       .  S
C2135      H2140   1.107       .  S
C2135      H2141   1.108       .  S
C2138      H2142   1.109       .  S
C2138      H2143   1.110       .  S
C2138      H2144   1.111       .  S
C2145      C2146   1.398       .  A
C2145      C2150   1.389       .  A
C2145      H2152   1.084       .  S
C2146      C2147   1.409       .  A
C2147      C2148   1.404       .  A
C2147      C2154   1.500       .  S
C2148      C2149   1.402       .  A
C2148      H2153   1.082       .  S
C2149      C2150   1.417       .  A
C2150      C2151   1.513       .  S
C2151      H2155   1.111       .  S
C2151      H2156   1.110       .  S
C2151      H2157   1.108       .  S
C2154      H2158   1.109       .  S
C2154      H2159   1.106   1_655  S
C2154      H2160   1.111   1_565  S
C2161      C2162   1.399       .  A
C2161      C2166   1.409       .  A
C2161      H2168   1.084       .  S
C2162      C2163   1.416   1_655  A
C2163      C2170   1.503       .  S
C2164      C2165   1.400       .  A
C2164      H2169   1.085       .  S
C2166      C2167   1.506       .  S
C2167      H2171   1.110       .  S
C2167      H2172   1.108   1_655  S
C2167      H2173   1.110       .  S
C2170      H2174   1.107       .  S
C2170      H2175   1.107       .  S
C2177      C2182   1.407       .  A
C2177      H2184   1.084       .  S
C2178      C2179   1.410       .  A
C2179      C2186   1.506       .  S
C2180      C2181   1.404   1_545  A
C2180      H2185   1.084       .  S
C2181      C2182   1.406       .  A
C2182      C2183   1.503       .  S
C2183      H2187   1.111       .  S
C2183      H2188   1.111       .  S
C2183      H2189   1.109       .  S
C2186      H2190   1.110       .  S
C2186      H2191   1.105       .  S
C2186      H2192   1.111       .  S
C2193      C2194   1.408       .  A
C2193      H2200   1.083       .  S
C2194      C2195   1.408       .  A
C2195      C2196   1.409       .  A
C2195      C2202   1.503       .  S
C2196      H2201   1.073   1_655  S
C2197      C2198   1.417       .  A
C2198      C2199   1.492       .  S
C2199      H2203   1.105       .  S
C2199      H2204   1.109       .  S
C2199      H2205   1.108       .  S
C2202      H2206   1.110       .  S
C2202      H2207   1.108       .  S
C2202      H2208   1.110       .  S
C2209      C2210   1.419   1_545  A
C2209      H2216   1.083       .  S
C2210      C2211   1.405       .  A
C2211      C2212   1.392   1_565  A
C2211      C2218   1.501       .  S
C2213      C2214   1.410       .  A
C2214      C2215   1.499       .  S
C2215      H2219   1.110       .  S
C2215      H2220   1.110       .  S
C2215      H2221   1.102       .  S
C2218      H2222   1.107       .  S
C2218      H2223   1.108       .  S
C2218      H2224   1.110       .  S
C2225      C2226   1.406       .  A
C2225      C2230   1.410       .  A
C2225      H2232   1.084       .  S
C2226      C2227   1.411       .  A
C2227      C2228   1.399       .  A
C2227      C2234   1.509       .  S
C2228      C2229   1.407       .  A
C2228      H2233   1.073       .  S
C2229      C2230   1.416       .  A
C2230      C2231   1.507       .  S
C2231      H2235   1.110       .  S
C2231      H2236   1.110       .  S
C2231      H2237   1.109       .  S
C2234      H2238   1.108       .  S
C2234      H2239   1.110       .  S
C2234      H2240   1.106       .  S
N2241      C2245   1.371       .  A
N2241      C2242   1.372       .  A
N2241      C2533   1.458       .  S
C2242      C2243   1.372       .  A
C2242      C2549   1.494       .  S
C2243      C2244   1.367       .  A
C2243      H2246   1.081       .  S
C2244      C2245   1.374       .  A
C2244      H2247   1.075       .  S
C2245      C2362   1.496       .  S
N2248      C2252   1.375       .  A
N2248      C2249   1.366       .  A
N2248      C2517   1.478       .  S
C2249      C2250   1.378       .  A
C2249      C2546   1.491       .  S
C2250      C2251   1.362       .  A
C2250      H2253   1.079       .  S
C2251      C2252   1.386       .  A
C2251      H2254   1.084       .  S
C2252      C2298   1.490       .  S
N2255      C2259   1.369       .  A
N2255      C2256   1.374       .  A
N2255      C2514   1.460       .  S
C2256      C2257   1.382       .  A
C2256      C2357   1.494       .  S
C2257      C2258   1.362       .  A
C2257      H2260   1.076       .  S
C2258      C2259   1.369       .  A
C2258      H2261   1.082       .  S
C2259      C2498   1.482       .  S
N2262      C2266   1.352       .  A
N2262      C2263   1.357       .  A
N2262      C2482   1.444       .  S
C2263      C2264   1.381       .  A
C2263      C2466   1.470       .  S
C2264      C2265   1.370       .  A
C2264      H2267   1.082       .  S
C2265      C2266   1.382       .  A
C2265      H2268   1.081       .  S
C2266      C2366   1.472       .  S
N2269      C2273   1.351       .  A
N2269      C2270   1.356       .  A
N2269      C2501   1.436       .  S
C2270      C2271   1.381       .  A
C2270      C2469   1.471       .  S
C2271      C2272   1.365       .  A
C2271      H2274   1.083       .  S
C2272      C2273   1.379       .  A
C2272      H2275   1.078       .  S
C2273      C2302   1.467       .  S
N2276      C2280   1.370       .  A
N2276      C2277   1.365       .  A
N2276      C2530   1.456       .  S
C2277      C2278   1.386       .  A
C2277      C2293   1.477       .  S
C2278      C2279   1.366       .  A
C2278      H2281   1.083       .  S
C2279      C2280   1.372       .  A
C2279      H2282   1.081       .  S
C2280      C2485   1.490       .  S
Fe2283     O2299   2.100       .  S
Fe2283     O2289   2.096       .  S
Fe2283     O2296   2.123       .  S
Fe2283     O2288   2.061       .  S
Fe2283     O2294   1.945       .  S
Fe2284     O2287   2.023       .  S
Fe2284     O2291   2.107       .  S
Fe2284     O2295   2.060       .  S
Fe2284     O2300   2.068       .  S
Fe2284     O2294   1.931       .  S
Fe2285     O2303   2.098       .  S
Fe2285     O2290   2.055       .  S
Fe2285     O2297   2.057       .  S
Fe2285     O2286   2.113       .  S
Fe2285     O2294   1.946       .  S
O2286      C2293   1.283       .  A
O2287      C2301   1.269       .  A
O2288      C2293   1.279       .  A
O2289      C2292   1.269       .  A
O2290      C2302   1.265       .  A
O2291      C2304   1.274       .  A
C2292      C2327   1.477       .  S
C2292      O2297   1.261       .  A
O2295      C2298   1.266       .  A
O2296      C2298   1.281       .  A
O2299      C2304   1.275       .  A
O2300      C2302   1.270       .  A
C2301      C2316   1.466       .  S
C2301      O2303   1.279       .  A
C2304      C2344   1.489       .  S
N2305      C2309   1.366       .  A
N2305      C2306   1.370       .  A
N2305      C2434   1.463       .  S
C2306      C2307   1.389       .  A
C2306      C2356   1.497       .  S
C2307      C2308   1.363       .  A
C2307      H2310   1.083       .  S
C2308      C2309   1.375       .  A
C2308      H2311   1.083       .  S
C2309      C2450   1.473       .  S
N2312      C2316   1.353       .  A
N2312      C2313   1.356       .  A
N2312      C2453   1.430       .  S
C2313      C2314   1.394       .  A
C2313      C2418   1.494       .  S
C2314      C2315   1.362       .  A
C2314      H2317   1.080       .  S
C2315      C2316   1.377       .  A
C2315      H2318   1.083       .  S
N2319      C2323   1.354       .  A
N2319      C2320   1.354       .  A
N2319      C2402   1.425       .  S
C2320      C2321   1.385       .  A
C2320      C2421   1.490       .  S
C2321      C2322   1.373       .  A
C2321      H2324   1.082       .  S
C2322      C2323   1.383       .  A
C2322      H2325   1.083       .  S
C2323      C2365   1.478       .  S
N2326      C2330   1.362   1_556  A
N2326      C2327   1.361       .  A
C2327      C2328   1.389       .  A
C2328      C2329   1.367   1_556  A
C2328      H2331   1.081       .  S
C2329      C2330   1.370       .  A
C2329      H2332   1.080       .  S
N2333      C2337   1.361       .  A
N2333      C2334   1.373       .  A
N2333      C2389   1.465       .  S
C2334      C2335   1.379       .  A
C2334      C2370   1.514       .  S
C2335      C2336   1.365       .  A
C2335      H2338   1.082       .  S
C2336      C2337   1.379       .  A
C2336      H2339   1.073       .  S
C2337      C2368   1.489       .  S
N2340      C2344   1.374       .  A
N2340      C2341   1.373       .  A
N2340      C2437   1.467       .  S
C2341      C2342   1.375       .  A
C2341      C2373   1.484   1_556  S
C2342      C2343   1.361       .  A
C2342      H2345   1.083   1_556  S
C2343      C2344   1.380       .  A
C2343      H2346   1.077       .  S
Fe2347     O2363   2.094       .  S
Fe2347     O2353   2.044       .  S
Fe2347     O2360   2.094       .  S
Fe2347     O2352   2.120       .  S
Fe2347     O2358   1.935       .  S
Fe2348     O2351   2.084       .  S
Fe2348     O2355   2.067       .  S
Fe2348     O2359   2.100       .  S
Fe2348     O2364   2.064       .  S
Fe2348     O2358   1.939       .  S
Fe2349     O2367   2.087       .  S
Fe2349     O2354   2.078       .  S
Fe2349     O2361   2.103       .  S
Fe2349     O2350   2.098       .  S
Fe2349     O2358   1.993       .  S
O2350      C2357   1.282       .  A
O2351      C2365   1.282       .  A
O2352      C2357   1.287       .  A
O2353      C2356   1.261       .  A
O2354      C2366   1.260       .  A
O2355      C2368   1.267       .  A
C2356      O2361   1.264       .  A
O2359      C2362   1.278       .  A
O2360      C2362   1.277       .  A
O2363      C2368   1.274       .  A
O2364      C2366   1.264       .  A
C2365      O2367   1.283       .  A
C2369      C2370   1.404       .  A
C2369      H2376   1.081       .  S
C2370      C2371   1.440       .  A
C2371      C2372   1.400       .  A
C2371      C2378   1.515       .  S
C2372      H2377   1.085       .  S
C2373      C2374   1.421   1_554  A
C2374      C2375   1.507       .  S
C2375      H2379   1.110       .  S
C2375      H2380   1.109       .  S
C2375      H2381   1.111       .  S
C2378      H2382   1.109       .  S
C2378      H2383   1.106       .  S
C2378      H2384   1.111       .  S
C2385      C2386   1.404       .  A
C2385      C2390   1.398       .  A
C2385      H2392   1.082       .  S
C2387      C2394   1.502       .  S
C2388      C2389   1.414       .  A
C2390      C2391   1.519       .  S
C2391      H2395   1.108       .  S
C2394      H2398   1.111       .  S
C2394      H2399   1.109       .  S
C2401      C2402   1.396       .  A
C2401      H2408   1.083       .  S
C2402      C2403   1.398       .  A
C2403      C2410   1.495       .  S
C2404      C2405   1.399       .  A
C2404      H2409   1.072       .  S
C2406      C2407   1.505       .  S
C2407      H2411   1.111       .  S
C2407      H2412   1.107   1_655  S
C2407      H2413   1.109   1_655  S
C2410      H2414   1.102       .  S
C2410      H2415   1.110       .  S
C2417      C2418   1.403       .  A
C2417      H2424   1.084       .  S
C2419      C2420   1.402       .  A
C2419      C2426   1.495       .  S
C2420      C2421   1.406       .  A
C2420      H2425   1.084       .  S
C2421      C2422   1.422       .  A
C2423      H2427   1.111       .  S
C2423      H2428   1.109       .  S
C2423      H2429   1.105       .  S
C2426      H2430   1.107       .  S
C2426      H2431   1.107       .  S
C2426      H2432   1.110       .  S
C2433      C2434   1.410       .  A
C2433      H2440   1.080       .  S
C2434      C2435   1.419       .  A
C2435      C2442   1.499       .  S
C2438      C2439   1.500       .  S
C2439      H2444   1.110       .  S
C2442      H2446   1.100       .  S
C2442      H2447   1.110       .  S
C2442      H2448   1.100       .  S
C2449      C2454   1.393       .  A
C2449      H2456   1.085       .  S
C2451      C2458   1.505       .  S
C2452      C2453   1.403       .  A
C2452      H2457   1.084       .  S
C2454      C2455   1.509       .  S
C2455      H2459   1.108       .  S
C2455      H2460   1.106       .  S
C2455      H2461   1.108       .  S
C2458      H2462   1.109       .  S
C2458      H2463   1.110       .  S
C2458      H2464   1.111       .  S
C2465      C2466   1.398       .  A
C2465      C2470   1.388       .  A
C2465      H2472   1.083       .  S
C2466      C2467   1.410       .  A
C2467      C2468   1.405       .  A
C2467      C2474   1.502       .  S
C2468      C2469   1.403       .  A
C2468      H2473   1.081       .  S
C2469      C2470   1.416       .  A
C2470      C2471   1.513       .  S
C2471      H2475   1.111       .  S
C2471      H2476   1.110       .  S
C2471      H2477   1.108       .  S
C2474      H2478   1.109       .  S
C2474      H2479   1.106   1_655  S
C2474      H2480   1.110   1_565  S
C2481      C2482   1.399       .  A
C2481      C2486   1.409       .  A
C2481      H2488   1.083       .  S
C2482      C2483   1.416   1_655  A
C2483      C2490   1.502       .  S
C2484      C2485   1.400       .  A
C2484      H2489   1.085       .  S
C2486      C2487   1.505       .  S
C2487      H2491   1.111       .  S
C2487      H2492   1.106       .  S
C2487      H2493   1.097       .  S
C2490      H2494   1.107       .  S
C2490      H2495   1.105       .  S
C2497      C2502   1.406       .  A
C2497      H2504   1.084       .  S
C2498      C2499   1.412       .  A
C2499      C2506   1.506       .  S
C2500      C2501   1.403       .  A
C2500      H2505   1.084   1_565  S
C2501      C2502   1.406       .  A
C2502      C2503   1.504       .  S
C2503      H2507   1.111       .  S
C2503      H2508   1.111       .  S
C2503      H2509   1.108       .  S
C2506      H2510   1.110       .  S
C2506      H2511   1.105       .  S
C2506      H2512   1.111       .  S
C2513      C2514   1.409       .  A
C2513      H2520   1.083       .  S
C2514      C2515   1.411       .  A
C2515      C2516   1.410       .  A
C2515      C2522   1.503       .  S
C2516      H2521   1.076       .  S
C2517      C2518   1.419       .  A
C2518      C2519   1.494       .  S
C2519      H2523   1.107       .  S
C2519      H2524   1.110       .  S
C2519      H2525   1.108       .  S
C2522      H2526   1.110       .  S
C2522      H2527   1.109       .  S
C2522      H2528   1.110       .  S
C2529      C2530   1.419   1_545  A
C2529      H2536   1.083       .  S
C2530      C2531   1.402       .  A
C2531      C2532   1.391   1_565  A
C2531      C2538   1.500       .  S
C2533      C2534   1.410       .  A
C2534      C2535   1.499       .  S
C2535      H2539   1.110       .  S
C2535      H2540   1.110       .  S
C2535      H2541   1.104       .  S
C2538      H2542   1.107       .  S
C2538      H2543   1.108       .  S
C2538      H2544   1.110       .  S
C2545      C2546   1.406       .  A
C2545      C2550   1.409       .  A
C2545      H2552   1.085       .  S
C2546      C2547   1.414       .  A
C2547      C2548   1.399       .  A
C2547      C2554   1.511       .  S
C2548      C2549   1.406       .  A
C2548      H2553   1.071       .  S
C2549      C2550   1.417       .  A
C2550      C2551   1.508       .  S
C2551      H2555   1.111       .  S
C2551      H2556   1.111       .  S
C2551      H2557   1.109       .  S
C2554      H2558   1.109       .  S
C2554      H2559   1.110       .  S
C2554      H2560   1.105       .  S
