geometry optimzed in LAMMPS
_audit_creation_date              2020-11-30 
_audit_creation_method            'lammps2cif' 
_symmetry_space_group_name_H-M    'P1' 
_symmetry_Int_Tables_number       1 
_symmetry_cell_setting            triclinic 
loop_ 
_symmetry_equiv_pos_as_xyz 
  x,y,z 
_cell_length_a                    53.29547486 
_cell_length_b                    53.48684646278218 
_cell_length_c                    53.51082977800607 
_cell_angle_alpha                 89.64654273947107 
_cell_angle_beta                  90.1832757689395 
_cell_angle_gamma                 89.22690955829698 
loop_ 
_atom_site_label 
_atom_site_type_symbol 
_atom_site_fract_x 
_atom_site_fract_y 
_atom_site_fract_z 
_atom_site_charge 
Zr1        Zr  0.74885594  0.55225132  0.94273251     2.17500
O2          O  0.72390413  0.55912665  0.98028119    -0.51700
O3          O  0.70593243  0.56031491  0.92901893    -0.74900
O4          O  0.75400701  0.59421893  0.95953801    -0.81700
O5          O  0.75794556  0.48265347  0.95658792    -0.83500
O6          O  0.77952430  0.61577600  0.93373498    -0.79100
O7          O  0.75180898  0.52013828  0.97563173    -0.90700
O8          O  0.70319443  0.57105043  0.88886257    -0.76700
O9          O  0.75281427  0.57738872  0.90602865    -0.86200
O10         O  0.73494097  0.52585402  0.90921827    -0.85900
O11         O  0.79242893  0.56346378  0.94042419    -0.72600
O12         O  0.77611946  0.51684589  0.93998092    -0.84700
Zr13       Zr  0.81193889  0.52762627  0.86850150     2.26400
Zr14       Zr  0.79608069  0.58772215  0.90298281     2.06300
Zr15       Zr  0.76300936  0.49009341  0.90765379     2.10000
Zr16       Zr  0.74028331  0.55146855  0.87227082     1.78800
O17         O  0.78226760  0.44856387  0.90814043    -0.93600
O18         O  0.73609819  0.58949164  0.84736063    -0.41400
O19         O  0.76922348  0.51809406  0.87457278    -0.78000
O20         O  0.78385332  0.56338848  0.86767676    -0.96700
O21         O  0.82385648  0.55270940  0.90272891    -0.90000
O22         O  0.80722651  0.50015156  0.90407009    -0.92800
C23         C  0.69939505  0.57585576  0.91184926     1.00900
C24         C  0.75467800  0.49628597  0.97709607     1.13900
C25         C  0.76531992  0.61423554  0.95284327     1.04600
O26         O  0.78105349  0.62384916  0.87910293    -0.95000
O27         O  0.82972893  0.59719444  0.87466903    -0.90700
O28         O  0.83495478  0.56281745  0.85060042    -0.83900
C29         C  0.84032352  0.58533699  0.85681753     1.11300
O30         O  0.84900644  0.54868698  0.96447400    -0.97000
Zr31       Zr  0.81904411  0.52678825  0.93835624     1.88900
O32         O  0.85392760  0.51292829  0.88074522    -0.73600
O33         O  0.83027606  0.60952089  0.92348033    -0.52900
O34         O  0.81355675  0.52743218  0.98340291    -0.97500
O35         O  0.83245301  0.48480725  0.95079476    -0.54800
O36         O  0.85966841  0.52766629  0.91981445    -0.74100
C37         C  0.86792586  0.51985999  0.89896263     0.98200
O38         O  0.83048986  0.51365840  0.82926401    -0.62900
O39         O  0.72444291  0.46616244  0.90659987    -0.57700
O40         O  0.78947823  0.50240216  0.83744116    -0.94400
O41         O  0.75739624  0.48409481  0.85860672    -0.92900
O42         O  0.70764699  0.52364757  0.85755843    -0.93200
O43         O  0.73987404  0.54624552  0.82718682    -0.92000
C44         C  0.76908967  0.48965951  0.83734403     1.17100
H45         H  0.71787497  0.52038095  0.91123032     0.33000
H46         H  0.78590344  0.57282635  0.85238706     0.43900
H47         H  0.81767559  0.48534915  0.90260771     0.37400
H48         H  0.79737277  0.57306572  0.95480424     0.33900
H49         H  0.71784747  0.59181808  0.84455879     0.25700
H50         H  0.82530433  0.62740539  0.92333963     0.31600
H51         H  0.79895573  0.53865333  0.98633608     0.37500
H52         H  0.69557569  0.52242139  0.87151621     0.32000
H53         H  0.71224282  0.47594676  0.91660044     0.30800
H54         H  0.77290175  0.43933528  0.92113310     0.32500
H55         H  0.84306275  0.48734506  0.96576488     0.31500
H56         H  0.75776348  0.54644188  0.82225996     0.35500
H57         H  0.82788290  0.52769320  0.81732582     0.28200
H58         H  0.71294470  0.54444602  0.98235956     0.32500
H59         H  0.85276382  0.56419835  0.95509454     0.35300
H60         H  0.71833601  0.46787859  0.88916715     0.27900
H61         H  0.84883932  0.51311156  0.83218408     0.40800
H62         H  0.78686111  0.62094851  0.86179610     0.30800
H63         H  0.74071148  0.60291096  0.85903442     0.38500
H64         H  0.84441116  0.47933889  0.93777147     0.30300
H65         H  0.82950647  0.60444989  0.94127443     0.30400
H66         H  0.73553458  0.55877522  0.99476138     0.30600
Zr67       Zr  0.79121720  0.44954367  0.61993621     2.17500
O68         O  0.78271186  0.43328512  0.57831088    -0.51700
O69         O  0.77298292  0.40823318  0.62675538    -0.74900
O70         O  0.83127636  0.43375765  0.60475199    -0.81700
O71         O  0.74129848  0.49919379  0.60921019    -0.83500
O72         O  0.85527459  0.42447258  0.63799300    -0.79100
O73         O  0.76679760  0.47219769  0.58800954    -0.90700
O74         O  0.77016039  0.40019302  0.66830175    -0.76700
O75         O  0.81351097  0.43431506  0.65558944    -0.86200
O76         O  0.76078252  0.45078679  0.65288162    -0.85900
O77         O  0.82643552  0.47710984  0.62484603    -0.72600
O78         O  0.77887429  0.49171734  0.62624893    -0.84700
Zr79       Zr  0.80545476  0.50813368  0.69814811     2.26400
Zr80       Zr  0.84752665  0.46246089  0.66197015     2.06300
Zr81       Zr  0.74823003  0.49385074  0.65817275     2.10000
Zr82       Zr  0.78450329  0.43653299  0.68878356     1.78800
O83         O  0.72300779  0.53190664  0.66227746    -0.93600
O84         O  0.81448226  0.40390235  0.70145917    -0.41400
O85         O  0.77302304  0.47900396  0.69165626    -0.78000
O86         O  0.81843676  0.46459338  0.69620452    -0.96700
O87         O  0.83549612  0.50583792  0.66552545    -0.99600
O88         O  0.78216580  0.52305465  0.66284888    -0.92800
C89         C  0.76736383  0.39426163  0.64552165     1.00900
C90         C  0.75008272  0.48976389  0.58793249     1.13900
C91         C  0.84758018  0.41978173  0.61584909     1.04600
O92         O  0.87796984  0.43478001  0.68249964    -0.95000
O93         O  0.87100643  0.47705412  0.69782933    -0.90700
O94         O  0.84417201  0.50222448  0.71934318    -0.83900
C95         C  0.86506253  0.49100195  0.71632316     1.11300
O96         O  0.81576692  0.52361871  0.58469985    -0.97000
Zr97       Zr  0.81262979  0.51974816  0.62988927     1.88900
O98         O  0.81307402  0.55201810  0.69090620    -0.73600
O99         O  0.88216619  0.47790474  0.63692128    -0.52900
O100        O  0.85444881  0.52731849  0.61351727    -0.97500
O101        O  0.78497556  0.55309217  0.61438027    -0.54800
O102        O  0.82647453  0.55625869  0.65108960    -0.74100
C103        C  0.82319371  0.56435894  0.67318066     0.98200
O104        O  0.81548512  0.52360979  0.73995517    -0.62900
O105        O  0.70705246  0.47520711  0.65376653    -0.57700
O106        O  0.76997243  0.51562512  0.72533776    -0.94400
O107        O  0.74275696  0.48937374  0.70789837    -0.92900
O108        O  0.74393408  0.43050678  0.70863096    -0.93200
O109        O  0.78081059  0.42792407  0.73323121    -0.92000
C110        C  0.75268560  0.49977661  0.72819043     1.17100
H111        H  0.74622614  0.44075900  0.64955895     0.33000
H112        H  0.82644761  0.45924056  0.71154103     0.43900
H113        H  0.77580825  0.53991705  0.66484572     0.37400
H114        H  0.83760776  0.47678278  0.61067818     0.33900
H115        H  0.82036334  0.39611043  0.68575897     0.25700
H116        H  0.89738538  0.47301459  0.64652396     0.31600
H117        H  0.86580757  0.52493233  0.62802943     0.37500
H118        H  0.73386960  0.42122267  0.69628080     0.32000
H119        H  0.69967141  0.47611074  0.67069425     0.30800
H120        H  0.73039891  0.54071497  0.67669857     0.32500
H121        H  0.77428756  0.54522577  0.60155174     0.31500
H122        H  0.79832166  0.42719905  0.73936576     0.35500
H123        H  0.80644996  0.53978539  0.74187100     0.28200
H124        H  0.78278662  0.41489339  0.58014224     0.32500
H125        H  0.82009420  0.50658588  0.57883163     0.35300
H126        H  0.69721096  0.48750004  0.64372759     0.27900
H127        H  0.80789042  0.51216071  0.75232113     0.40800
H128        H  0.86842732  0.41974149  0.68722921     0.30800
H129        H  0.82922727  0.41292249  0.70788192     0.38500
H130        H  0.79597680  0.56453602  0.60495324     0.30300
H131        H  0.88259036  0.46700846  0.62203395     0.30400
H132        H  0.79778634  0.43699860  0.56824272     0.30600
Zr133      Zr  0.67689470  0.50553681  0.19265245     2.17500
O134        O  0.66677712  0.49006126  0.23465147    -0.51700
O135        O  0.65867663  0.46444822  0.18815779    -0.74900
O136        O  0.63969529  0.52701536  0.20643996    -0.81700
O137        O  0.74244432  0.50612861  0.20768283    -0.83500
O138        O  0.61686916  0.53506960  0.17218460    -0.79100
O139        O  0.70608771  0.49421215  0.22522479    -0.90700
O140        O  0.66229335  0.45070716  0.14840442    -0.76700
O141        O  0.65135995  0.51083206  0.15663994    -0.86200
O142        O  0.69832571  0.48139890  0.16183623    -0.85900
O143        O  0.67537114  0.55050141  0.18501834    -0.72600
O144        O  0.71661562  0.52446159  0.18676679    -0.84700
Zr145      Zr  0.71298368  0.54853847  0.11233620     2.26400
Zr146      Zr  0.65038914  0.55486629  0.14767235     2.06300
Zr147      Zr  0.73891945  0.49953599  0.15781301     2.10000
Zr148      Zr  0.67191212  0.48768735  0.12540035     1.78800
O149        O  0.78409844  0.50549708  0.15626381    -0.93600
O150        O  0.62654245  0.48134045  0.12378816    -0.41400
O151        O  0.71253857  0.50521934  0.12230475    -0.78000
O152        O  0.67113617  0.53172299  0.11493348    -0.96700
O153        O  0.69113877  0.57273369  0.14236514    -0.90000
O154        O  0.73875394  0.54296950  0.14850863    -0.92800
C155        C  0.65703237  0.44763518  0.17138899     1.00900
C156        C  0.72809089  0.50265496  0.22785120     1.13900
C157        C  0.61893349  0.52684999  0.19472791     1.04600
O158        O  0.61170299  0.55847175  0.12349024    -0.95000
O159        O  0.65062048  0.58685469  0.11467890    -0.90700
O160        O  0.68799060  0.58157355  0.09486925    -0.83900
C161        C  0.66696691  0.59262746  0.09804125     1.11300
O162        O  0.70681980  0.58801105  0.21820838    -0.97000
Zr163      Zr  0.71628946  0.56819360  0.17836757     1.88900
O164        O  0.74571787  0.57938581  0.11653582    -0.73600
O165        O  0.63780365  0.59012300  0.17361927    -0.52900
O166        O  0.70045093  0.61031631  0.16956574    -0.97500
O167        O  0.74864696  0.56814031  0.21057920    -0.54800
O168        O  0.74947701  0.59022050  0.15727536    -0.74100
C169        C  0.75642643  0.59100309  0.13442242     0.98200
O170        O  0.71876989  0.55358344  0.06728729    -0.62900
O171        O  0.75221757  0.45690402  0.16777702    -0.57700
O172        O  0.74031404  0.52501689  0.08558022    -0.94400
O173        O  0.74615204  0.48984753  0.10895370    -0.92900
O174        O  0.69376568  0.45595543  0.10091444    -0.93200
O175        O  0.65308644  0.48335801  0.08401908    -0.92000
C176        C  0.74597012  0.50185576  0.08690263     1.17100
H177        H  0.70130590  0.46422621  0.16671007     0.33000
H178        H  0.66241549  0.53456636  0.09930592     0.43900
H179        H  0.75625955  0.54658393  0.14654272     0.37400
H180        H  0.66759358  0.55968819  0.19846438     0.33900
H181        H  0.62127946  0.47666245  0.14090025     0.25700
H182        H  0.64724785  0.60443833  0.16682481     0.31600
H183        H  0.71391481  0.62157388  0.17518712     0.37500
H184        H  0.68484121  0.44022451  0.10448824     0.32000
H185        H  0.76156032  0.45127748  0.15282389     0.30800
H186        H  0.79066648  0.49083454  0.14703766     0.32500
H187        H  0.75697918  0.58448137  0.20869791     0.31500
H188        H  0.64436433  0.49944071  0.08039302     0.35500
H189        H  0.70179528  0.55431265  0.05976826     0.28200
H190        H  0.66401100  0.47185266  0.23340222     0.32500
H191        H  0.68969976  0.59519699  0.21626792     0.35300
H192        H  0.76524450  0.45878738  0.18084178     0.27900
H193        H  0.72552267  0.57060079  0.06493223     0.40800
H194        H  0.60062874  0.56953975  0.13347045     0.30800
H195        H  0.61903860  0.49817406  0.12101468     0.38500
H196        H  0.76128862  0.55579173  0.20473076     0.30300
H197        H  0.62015962  0.59371333  0.16884926     0.30400
H198        H  0.65015996  0.49694529  0.23927724     0.30600
Zr199      Zr  0.69717052  0.45726368  0.36936202     2.17500
O200        O  0.66777220  0.47168846  0.33699396    -0.51700
O201        O  0.65251081  0.45840067  0.37897048    -0.74900
O202        O  0.68902872  0.41904039  0.34744865    -0.81700
O203        O  0.73696823  0.51461612  0.35941436    -0.83500
O204        O  0.69167817  0.38913948  0.37712857    -0.79100
O205        O  0.71383682  0.48622257  0.33809679    -0.90700
O206        O  0.64780419  0.45180892  0.42041602    -0.76700
O207        O  0.69005269  0.42946104  0.40341326    -0.86200
O208        O  0.69438103  0.48429636  0.40489640    -0.85900
O209        O  0.73231969  0.42790315  0.36887081    -0.72600
O210        O  0.73612624  0.47709602  0.37487660    -0.84700
Zr211      Zr  0.76352239  0.44804703  0.44251882     2.26400
Zr212      Zr  0.72536299  0.40167020  0.40437784     2.06300
Zr213      Zr  0.73438086  0.50507229  0.40839253     2.10000
Zr214      Zr  0.68863451  0.45530095  0.43900972     1.78800
O215        O  0.76608576  0.53734759  0.41053517    -0.93600
O216        O  0.66802697  0.42154910  0.46167787    -0.41400
O217        O  0.72798732  0.47528235  0.44041193    -0.78000
O218        O  0.72385071  0.42678716  0.44123439    -0.96700
O219        O  0.76446084  0.42199788  0.40661212    -0.90000
O220        O  0.77028044  0.47730792  0.40885293    -0.92800
C221        C  0.63905044  0.45412842  0.39830599     1.00900
C222        C  0.72829058  0.50526033  0.33803595     1.13900
C223        C  0.68318700  0.39763052  0.35635197     1.04600
O224        O  0.70407079  0.36829730  0.42665306    -0.95000
O225        O  0.74888323  0.37874272  0.43579890    -0.90700
O226        O  0.76852983  0.40663014  0.46057001    -0.83900
C227        C  0.76197063  0.38436924  0.45504514     1.11300
O228        O  0.76164308  0.45440436  0.32831014    -0.97000
Zr229      Zr  0.77133115  0.45002858  0.37259644     1.88900
O230        O  0.80440938  0.45059168  0.42317868    -0.73600
O231        O  0.74426631  0.36953951  0.37810730    -0.52900
O232        O  0.79137833  0.42117003  0.34359839    -0.97500
O233        O  0.80293802  0.48144846  0.36440294    -0.54800
O234        O  0.80705340  0.42829182  0.38911966    -0.74100
C235        C  0.81352852  0.43194814  0.41151446     0.98200
O236        O  0.79142976  0.45094824  0.47866343    -0.62900
O237        O  0.70538093  0.54062969  0.40807478    -0.57700
O238        O  0.75591309  0.47707797  0.47629342    -0.94400
O239        O  0.73701267  0.51096519  0.45785914    -0.92900
O240        O  0.66903836  0.49339528  0.45490553    -0.93200
O241        O  0.68864450  0.45511018  0.48440476    -0.92000
C242        C  0.74530398  0.49860978  0.47807190     1.17100
H243        H  0.68054280  0.49605233  0.40326010     0.33000
H244        H  0.72178753  0.41643993  0.45591264     0.43900
H245        H  0.78497456  0.48751136  0.41078257     0.37400
H246        H  0.73314631  0.41790838  0.35393167     0.33900
H247        H  0.65086161  0.42034855  0.45472997     0.25700
H248        H  0.73723972  0.35368510  0.38445797     0.31600
H249        H  0.78084517  0.40606636  0.34407834     0.37500
H250        H  0.65450288  0.49666494  0.44373024     0.32000
H251        H  0.71137876  0.55144816  0.42173953     0.30800
H252        H  0.77826420  0.53286911  0.39730695     0.32500
H253        H  0.81275928  0.47446974  0.35034309     0.31500
H254        H  0.70546785  0.44849764  0.48909934     0.35500
H255        H  0.79971726  0.43440507  0.48070177     0.28200
H256        H  0.66724899  0.49019248  0.33771744     0.32500
H257        H  0.74387183  0.44976147  0.32617717     0.35300
H258        H  0.70946663  0.54990779  0.39257652     0.27900
H259        H  0.80501707  0.46220631  0.47329837     0.40800
H260        H  0.68649399  0.37415630  0.42827452     0.30800
H261        H  0.67661478  0.40605104  0.45617968     0.38500
H262        H  0.81466539  0.48040999  0.37875904     0.30300
H263        H  0.73646874  0.37186791  0.36142634     0.30400
H264        H  0.67531476  0.46747095  0.32063654     0.30600
Zr265      Zr  0.12557817  0.71437847  0.57476688     2.17500
O266        O  0.17008240  0.70378342  0.57935549    -0.51700
O267        O  0.12416951  0.66951081  0.56885880    -0.74900
O268        O  0.13850490  0.70984449  0.61795371    -0.81700
O269        O  0.13651922  0.74377865  0.51235578    -0.83500
O270        O  0.10275141  0.70746834  0.63990421    -0.79100
O271        O  0.15759001  0.72534399  0.54482090    -0.90700
O272        O  0.08521562  0.65808742  0.57978217    -0.76700
O273        O  0.08942747  0.70471651  0.59852409    -0.86200
O274        O  0.09500036  0.70238811  0.54423377    -0.85900
O275        O  0.11591189  0.75164407  0.59806089    -0.72600
O276        O  0.11739669  0.74977558  0.54894509    -0.84700
Zr277      Zr  0.04152869  0.76583887  0.56423240     2.26400
Zr278      Zr  0.07814827  0.74178236  0.62079683     2.06300
Zr279      Zr  0.08746781  0.73842035  0.51779014     2.10000
Zr280      Zr  0.05874003  0.69321466  0.56925852     1.78800
O281        O  0.08463415  0.76657618  0.48194005    -0.93600
O282        O  0.04008827  0.67123569  0.60460698    -0.41400
O283        O  0.05227990  0.72838065  0.54283147    -0.78000
O284        O  0.04603778  0.73023904  0.59158810    -0.96700
O285        O  0.07155791  0.77764505  0.59438135    -0.90000
O286        O  0.07722504  0.77622325  0.53966874    -0.92800
C287        C  0.10781630  0.65291111  0.57378936     1.00900
C288        C  0.15769561  0.73788724  0.52436976     1.13900
C289        C  0.12566614  0.70089862  0.63586460     1.04600
O290        O  0.05261044  0.72376427  0.65382945    -0.95000
O291        O  0.04320681  0.76870668  0.63473438    -0.90700
O292        O  0.02483781  0.78592957  0.60031242    -0.83900
C293        C  0.02702369  0.78336059  0.62391583     1.11300
O294        O  0.14510382  0.81235670  0.57402180    -0.97000
Zr295      Zr  0.10752809  0.78699375  0.57091678     1.88900
O296        O  0.04267698  0.80882723  0.55253720    -0.73600
O297        O  0.10119597  0.76518808  0.65206128    -0.52900
O298        O  0.12120293  0.80199638  0.61161948    -0.97500
O299        O  0.12951851  0.80443131  0.53505906    -0.54800
O300        O  0.07866596  0.82223812  0.56990922    -0.74100
C301        C  0.05680767  0.82603487  0.56054147     0.98200
O302        O  0.99590498  0.76322888  0.56639520    -0.62900
O303        O  0.09501513  0.70720898  0.48562915    -0.57700
O304        O  0.01853785  0.76664497  0.52595361    -0.94400
O305        O  0.03835292  0.73394705  0.50829026    -0.92900
O306        O  0.05214470  0.66677538  0.53293288    -0.93200
O307        O  0.01513336  0.68247962  0.56175398    -0.92000
C308        C  0.01743499  0.74707677  0.51280688     1.17100
H309        H  0.10039888  0.68838802  0.53419468     0.33000
H310        H  0.03044138  0.72746478  0.60025859     0.43900
H311        H  0.07448157  0.78951197  0.52762889     0.37400
H312        H  0.12951669  0.75534005  0.60935856     0.33900
H313        H  0.05416695  0.66786554  0.61632618     0.25700
H314        H  0.09031292  0.76487204  0.66701716     0.31600
H315        H  0.10701046  0.81244210  0.61764012     0.37500
H316        H  0.06773993  0.65666804  0.53126195     0.32000
H317        H  0.09608719  0.71692412  0.46987128     0.30800
H318        H  0.09881263  0.77813618  0.48416687     0.32500
H319        H  0.11704162  0.81566509  0.52688815     0.31500
H320        H  0.00547186  0.69218935  0.57422905     0.35500
H321        H  0.99196807  0.75605943  0.58300480     0.28200
H322        H  0.17089842  0.68854159  0.58990486     0.32500
H323        H  0.13893378  0.82982974  0.57571334     0.35300
H324        H  0.11241075  0.70120837  0.48875616     0.27900
H325        H  0.98955695  0.78070632  0.56685147     0.40800
H326        H  0.05224662  0.70565747  0.65014564     0.30800
H327        H  0.02960330  0.68386429  0.61327768     0.38500
H328        H  0.13158865  0.79047033  0.52320086     0.30300
H329        H  0.11570067  0.75431539  0.65658832     0.30400
H330        H  0.17714422  0.71704452  0.59000350     0.30600
Zr331      Zr  0.87707198  0.80447483  0.54243022     2.17500
O332        O  0.91998806  0.80210922  0.55819365    -0.51700
O333        O  0.86626691  0.79682722  0.58631322    -0.74900
O334        O  0.89096450  0.84538051  0.55572975    -0.81700
O335        O  0.88617101  0.74243876  0.51077942    -0.83500
O336        O  0.86575624  0.87611753  0.53961963    -0.79100
O337        O  0.90790140  0.77166314  0.53250377    -0.90700
O338        O  0.82493424  0.80603525  0.59165901    -0.76700
O339        O  0.84339181  0.83367297  0.54505617    -0.86200
O340        O  0.84105135  0.77866452  0.54807487    -0.85900
O341        O  0.87740112  0.82869672  0.50407730    -0.72600
O342        O  0.87149518  0.78023534  0.50609732    -0.84700
Zr343      Zr  0.80294950  0.80574864  0.47548906     2.26400
Zr344      Zr  0.84195062  0.85642496  0.50652794     2.06300
Zr345      Zr  0.83743253  0.75310422  0.51124822     2.10000
Zr346      Zr  0.80733799  0.80926825  0.55036914     1.78800
O347        O  0.83484125  0.71826486  0.48234989    -0.93600
O348        O  0.79588361  0.84878558  0.57023891    -0.41400
O349        O  0.80593848  0.78425681  0.51406524    -0.78000
O350        O  0.80441378  0.83270140  0.51173090    -0.96700
O351        O  0.83918166  0.83083785  0.47064254    -0.90000
O352        O  0.83682473  0.77577524  0.47215507    -0.92800
C353        C  0.84660249  0.79986502  0.59995029     1.00900
C354        C  0.90758397  0.75149341  0.51954407     1.13900
C355        C  0.88290617  0.86804053  0.55462697     1.04600
O356        O  0.81550414  0.89117889  0.52036604    -0.95000
O357        O  0.81800358  0.87259140  0.47111892    -0.90700
O358        O  0.78529878  0.84672540  0.46621946    -0.83900
C359        C  0.79544212  0.86817271  0.46409487     1.11300
O360        O  0.91841927  0.80015300  0.47485688    -0.97000
Zr361      Zr  0.87321090  0.80212740  0.46781228     1.88900
O362        O  0.81707093  0.79741511  0.43348882    -0.73600
O363        O  0.87185538  0.88400424  0.48643618    -0.52900
O364        O  0.89962354  0.82778334  0.44114665    -0.97500
O365        O  0.88345512  0.76387486  0.44540462    -0.54800
O366        O  0.85292060  0.81799357  0.43059834    -0.74100
C367        C  0.83129913  0.81254199  0.42212002     0.98200
O368        O  0.76660667  0.79860259  0.44866912    -0.62900
O369        O  0.83768327  0.72072105  0.54341031    -0.57700
O370        O  0.76941454  0.77860251  0.48877099    -0.94400
O371        O  0.78781436  0.74790424  0.51233921    -0.92900
O372        O  0.78247910  0.77486304  0.56635974    -0.93200
O373        O  0.76266368  0.81691771  0.55632730    -0.92000
C374        C  0.76750461  0.75944363  0.50304194     1.17100
H375        H  0.84191671  0.76770176  0.56241339     0.33000
H376        H  0.78992882  0.84371718  0.51248513     0.43900
H377        H  0.83495914  0.76425589  0.45846202     0.37400
H378        H  0.89252058  0.83840042  0.50314986     0.33900
H379        H  0.79255824  0.84447524  0.58793426     0.25700
H380        H  0.87531057  0.87605889  0.47011470     0.31600
H381        H  0.90544438  0.81641974  0.42775198     0.37500
H382        H  0.79310734  0.75977236  0.56384054     0.32000
H383        H  0.82416871  0.70926670  0.53834776     0.30800
H384        H  0.81731505  0.71886267  0.47616043     0.32500
H385        H  0.88849311  0.75177482  0.45862593     0.31500
H386        H  0.75787185  0.82938676  0.54335425     0.35500
H387        H  0.75214261  0.80684154  0.45690930     0.28200
H388        H  0.91924782  0.81007833  0.57476779     0.32500
H389        H  0.92318910  0.81607147  0.48278137     0.35300
H390        H  0.85340713  0.71111599  0.54052490     0.27900
H391        H  0.76941086  0.80871433  0.43341909     0.40800
H392        H  0.81929524  0.89321415  0.53834790     0.30800
H393        H  0.81144212  0.85865136  0.57079791     0.38500
H394        H  0.89924965  0.76761516  0.43652489     0.30300
H395        H  0.86198824  0.89927573  0.48220405     0.30400
H396        H  0.92957885  0.81390509  0.54768147     0.30600
Zr397      Zr  0.62527192  0.79757726  0.45480723     2.17500
O398        O  0.66158474  0.82202123  0.46719095    -0.51700
O399        O  0.61380156  0.84178750  0.45687919    -0.74900
O400        O  0.64563466  0.80752016  0.41581716    -0.81700
O401        O  0.63630816  0.75922033  0.51324870    -0.83500
O402        O  0.61684990  0.80068528  0.38550599    -0.79100
O403        O  0.65728614  0.78219957  0.48420773    -0.90700
O404        O  0.57200419  0.84734456  0.45183689    -0.76700
O405        O  0.59119639  0.80311203  0.42655254    -0.86200
O406        O  0.58939562  0.80180307  0.48153614    -0.85900
O407        O  0.62630683  0.76111685  0.42824638    -0.72600
O408        O  0.61994402  0.75954178  0.47640317    -0.84700
Zr409      Zr  0.55257572  0.73196139  0.45161321     2.26400
Zr410      Zr  0.59083201  0.76664437  0.40120819     2.06300
Zr411      Zr  0.58728878  0.76310796  0.50536010     2.10000
Zr412      Zr  0.55509852  0.80604086  0.45199046     1.78800
O413        O  0.58484626  0.73329415  0.53980151    -0.93600
O414        O  0.53917216  0.82768771  0.41474906    -0.41400
O415        O  0.55468361  0.76870809  0.47590256    -0.78000
O416        O  0.55359832  0.76951660  0.42626228    -0.96700
O417        O  0.58780183  0.72852514  0.42439582    -0.90000
O418        O  0.58653617  0.72562253  0.48050526    -0.92800
C419        C  0.59414479  0.85570194  0.45414833     1.00900
C420        C  0.65750584  0.76769988  0.50347838     1.13900
C421        C  0.63651922  0.81145354  0.39397818     1.04600
O422        O  0.57062805  0.78784491  0.36595710    -0.95000
O423        O  0.55900918  0.74204299  0.38081104    -0.90700
O424        O  0.53652960  0.72262909  0.41092574    -0.83900
C425        C  0.54130798  0.72774163  0.38812544     1.11300
O426        O  0.66729537  0.72665019  0.45314006    -0.97000
Zr427      Zr  0.62184529  0.72280118  0.45230027     1.88900
O428        O  0.56539742  0.68887962  0.45728566    -0.73600
O429        O  0.61676925  0.74185688  0.37293649    -0.52900
O430        O  0.64982559  0.69980564  0.42457781    -0.97500
O431        O  0.63218724  0.69781458  0.48923802    -0.54800
O432        O  0.60093377  0.68647854  0.43588456    -0.74100
C433        C  0.57977320  0.67747644  0.44201365     0.98200
O434        O  0.51391789  0.70803073  0.45454045    -0.62900
O435        O  0.59043559  0.79258184  0.53983866    -0.57700
O436        O  0.51900919  0.74169604  0.48077611    -0.94400
O437        O  0.53811704  0.76192777  0.51277944    -0.92900
O438        O  0.53163098  0.82670947  0.48508403    -0.93200
O439        O  0.50985492  0.80136293  0.44824307    -0.92000
C440        C  0.51764866  0.75341031  0.50154705     1.17100
H441        H  0.59045289  0.81630750  0.49210713     0.33000
H442        H  0.53886012  0.77080555  0.41576726     0.43900
H443        H  0.58471964  0.71111319  0.49115272     0.37400
H444        H  0.64170227  0.76038845  0.41880253     0.33900
H445        H  0.55253342  0.83927333  0.40953735     0.25700
H446        H  0.61816986  0.75229343  0.35767868     0.31600
H447        H  0.64317241  0.70324884  0.40759248     0.37500
H448        H  0.53468218  0.81617678  0.50009001     0.32000
H449        H  0.60321916  0.78496765  0.55110944     0.30800
H450        H  0.57555851  0.74235957  0.55302276     0.32500
H451        H  0.65042994  0.69437461  0.48801143     0.31500
H452        H  0.50716663  0.78307954  0.44844043     0.35500
H453        H  0.50139047  0.71698939  0.44395856     0.28200
H454        H  0.65586970  0.83221524  0.48153974     0.32500
H455        H  0.67046319  0.74480879  0.45197840     0.35300
H456        H  0.59877113  0.80751536  0.53294798     0.27900
H457        H  0.51727995  0.69220300  0.44557954     0.40800
H458        H  0.58192626  0.78478800  0.35161257     0.30800
H459        H  0.53906975  0.81483840  0.40152352     0.38500
H460        H  0.62436987  0.68143955  0.48608014     0.30300
H461        H  0.63384390  0.74172533  0.38022918     0.30400
H462        H  0.66406451  0.83429539  0.45351887     0.30600
Zr463      Zr  0.30268754  0.69062875  0.52734769     2.17500
O464        O  0.26193704  0.68179023  0.54608910    -0.51700
O465        O  0.30790133  0.69498755  0.57192754    -0.74900
O466        O  0.28882175  0.64786424  0.53084616    -0.81700
O467        O  0.28766981  0.75559479  0.50749284    -0.83500
O468        O  0.32233419  0.62290376  0.52272924    -0.79100
O469        O  0.26893138  0.71909362  0.51792438    -0.90700
O470        O  0.34562550  0.67788204  0.57989785    -0.76700
O471        O  0.33956844  0.66650703  0.53457995    -0.86200
O472        O  0.33277859  0.72106688  0.54015746    -0.85900
O473        O  0.31109650  0.67016143  0.48834491    -0.72600
O474        O  0.30679967  0.71933083  0.49322767    -0.84700
Zr475      Zr  0.38396358  0.70442525  0.47306196     2.26400
Zr476      Zr  0.34940939  0.64722832  0.49577619     2.06300
Zr477      Zr  0.33733310  0.74935124  0.50534282     2.10000
Zr478      Zr  0.37004917  0.69580523  0.54666439     1.78800
O479        O  0.33716419  0.78418639  0.47579794    -0.93600
O480        O  0.39572316  0.66092139  0.56210057    -0.41400
O481        O  0.37321543  0.72332375  0.51203901    -0.78000
O482        O  0.38156659  0.67572747  0.50778771    -0.96700
O483        O  0.35282571  0.67578757  0.46179508    -0.90000
O484        O  0.34723357  0.72979584  0.46615902    -0.92800
C485        C  0.32261660  0.68154277  0.58540164     1.00900
C486        C  0.26730926  0.74203136  0.51173890     1.13900
C487        C  0.30011917  0.62661331  0.53128994     1.04600
O488        O  0.37983766  0.61816678  0.51430533    -0.95000
O489        O  0.37744339  0.63456122  0.46242202    -0.90700
O490        O  0.39865335  0.66875349  0.44936631    -0.83900
C491        C  0.39321114  0.64552227  0.44815006     1.11300
O492        O  0.30921547  0.66521296  0.42608256    -0.97000
Zr493      Zr  0.31630764  0.69981095  0.45448955     1.88900
O494        O  0.38013711  0.71605113  0.42928638    -0.73600
O495        O  0.32969116  0.61496284  0.47069856    -0.52900
O496        O  0.27320783  0.69082026  0.44272937    -0.97500
O497        O  0.29790252  0.73816000  0.43698171    -0.54800
O498        O  0.34061095  0.70659039  0.41719388    -0.74100
C499        C  0.36287436  0.71394762  0.41270073     0.98200
O500        O  0.42961519  0.70115507  0.47530235    -0.62900
O501        O  0.33294370  0.78416875  0.53416865    -0.57700
O502        O  0.40695071  0.74246518  0.47760327    -0.94400
O503        O  0.38617799  0.75839315  0.51079500    -0.92900
O504        O  0.37191885  0.72936788  0.57721626    -0.93200
O505        O  0.41312372  0.70535125  0.55818342    -0.92000
C506        C  0.40729196  0.75469438  0.49795891     1.17100
H507        H  0.32792479  0.73053752  0.55472104     0.33000
H508        H  0.39739313  0.66689990  0.50973119     0.43900
H509        H  0.34976199  0.74242003  0.45351387     0.37400
H510        H  0.29774411  0.65884252  0.48428028     0.33900
H511        H  0.39578796  0.66266054  0.58050934     0.25700
H512        H  0.33733612  0.59904613  0.47669378     0.31600
H513        H  0.26756780  0.67824771  0.45506481     0.37500
H514        H  0.37632613  0.74438837  0.56733579     0.32000
H515        H  0.34555927  0.79635876  0.52847749     0.30800
H516        H  0.31979107  0.78484958  0.46919130     0.32500
H517        H  0.28873894  0.73284852  0.42183997     0.31500
H518        H  0.41376192  0.70535662  0.57667981     0.35500
H519        H  0.43334217  0.68383297  0.48094987     0.28200
H520        H  0.25702720  0.69641875  0.55632417     0.32500
H521        H  0.31086056  0.65002869  0.43665969     0.35300
H522        H  0.31660486  0.79206864  0.52972369     0.27900
H523        H  0.43538190  0.70178098  0.45773630     0.40800
H524        H  0.36966483  0.60501995  0.52230628     0.30800
H525        H  0.38546795  0.64595795  0.55897875     0.38500
H526        H  0.31214629  0.74785544  0.43039940     0.30300
H527        H  0.31200031  0.61430842  0.47621583     0.30400
H528        H  0.24936530  0.68091097  0.53244746     0.30600
Zr529      Zr  0.76441263  0.06554691  0.84339219     2.17500
O530        O  0.77257250  0.06365797  0.88843007    -0.51700
O531        O  0.80371958  0.08748236  0.85394785    -0.74900
O532        O  0.76457962  0.02654223  0.86676463    -0.81700
O533        O  0.73152907  0.12827783  0.83978088    -0.83500
O534        O  0.76092309  0.99405608  0.83945766    -0.79100
O535        O  0.73673143  0.09458506  0.86531488    -0.90700
O536        O  0.82367700  0.09771122  0.81799887    -0.76700
O537        O  0.78903110  0.04318758  0.81302288    -0.86200
O538        O  0.77528213  0.09777221  0.81474988    -0.85900
O539        O  0.73843351  0.03424180  0.82410637    -0.72600
O540        O  0.72570629  0.08213788  0.82660413    -0.84700
Zr541      Zr  0.73669370  0.06393511  0.74940805     2.26400
Zr542      Zr  0.76272741  0.01197220  0.79279590     2.06300
Zr543      Zr  0.73773407  0.11385640  0.79720955     2.10000
Zr544      Zr  0.80102941  0.07622655  0.78526370     1.78800
O545        O  0.71362900  0.15224422  0.80399697    -0.93600
O546        O  0.83858442  0.05127269  0.79464771    -0.41400
O547        O  0.76387564  0.09486818  0.76628139    -0.78000
O548        O  0.77519792  0.04571460  0.76560370    -0.96700
O549        O  0.72508512  0.03064873  0.77662993    -0.90000
O550        O  0.71100650  0.08273071  0.78045953    -0.92800
C551        C  0.82077193  0.09920155  0.84171347     1.00900
C552        C  0.72973295  0.11725149  0.86102125     1.13900
C553        C  0.76115786  0.00329245  0.86259101     1.04600
O554        O  0.80177484  0.98787251  0.79245959    -0.95000
O555        O  0.76326686  0.00117142  0.74302528    -0.90700
O556        O  0.74848283  0.03419728  0.71985757    -0.83900
C557        C  0.75783339  0.01234744  0.72098269     1.11300
O558        O  0.67997829  0.04880679  0.84850062    -0.97000
Zr559      Zr  0.70059618  0.05047754  0.80802284     1.88900
O560        O  0.70020380  0.03997336  0.73733601    -0.73600
O561        O  0.73863636  0.97371151  0.79033498    -0.52900
O562        O  0.68878058  0.00792950  0.81895406    -0.97500
O563        O  0.66193514  0.07529462  0.81091391    -0.54800
O564        O  0.67681467  0.03695926  0.77257888    -0.74100
C565        C  0.68060171  0.03327208  0.74930789     0.98200
O566        O  0.75152643  0.07851128  0.70880487    -0.62900
O567        O  0.76890896  0.14523846  0.78712769    -0.57700
O568        O  0.70982710  0.09721199  0.73380781    -0.94400
O569        O  0.71330407  0.12890995  0.76150368    -0.92900
O570        O  0.81608708  0.11310158  0.76332196    -0.93200
O571        O  0.82619575  0.06758034  0.74826600    -0.92000
C572        C  0.70301341  0.11844264  0.74258533     1.17100
H573        H  0.78186532  0.11263589  0.82224709     0.33000
H574        H  0.78529080  0.03922812  0.75214665     0.43900
H575        H  0.69468543  0.08872264  0.77529776     0.37400
H576        H  0.73051047  0.02381248  0.83629916     0.33900
H577        H  0.84011131  0.05116696  0.81309591     0.25700
H578        H  0.72886647  0.97541746  0.77462799     0.31600
H579        H  0.67247165  0.00532127  0.81052836     0.37500
H580        H  0.83351015  0.11518568  0.76936968     0.32000
H581        H  0.76216945  0.15379206  0.77202345     0.30800
H582        H  0.69698016  0.14670356  0.80984701     0.32500
H583        H  0.65514560  0.07641725  0.79370665     0.31500
H584        H  0.81452403  0.06993648  0.73398364     0.35500
H585        H  0.73685082  0.07772621  0.69743685     0.28200
H586        H  0.77242834  0.08120484  0.89423611     0.32500
H587        H  0.68525305  0.06421768  0.85708655     0.35300
H588        H  0.76725183  0.15780829  0.80055553     0.27900
H589        H  0.75460503  0.09658967  0.71091287     0.40800
H590        H  0.80951629  0.99117728  0.80893964     0.30800
H591        H  0.83407768  0.03391237  0.79037907     0.38500
H592        H  0.66753042  0.09245584  0.81465714     0.30300
H593        H  0.75125988  0.96045423  0.78684732     0.30400
H594        H  0.79031205  0.05818992  0.89038086     0.30600
Zr595      Zr  0.67699614  0.98739851  0.59118249     2.17500
O596        O  0.68382048  0.95717025  0.62502168    -0.51700
O597        O  0.66031134  0.02250988  0.61414463    -0.74900
O598        O  0.71232977  0.99648878  0.61685304    -0.81700
O599        O  0.61075205  0.96142896  0.58066224    -0.83500
O600        O  0.74415581  0.00552711  0.58986808    -0.79100
O601        O  0.63998554  0.96978726  0.61044597    -0.90700
O602        O  0.64501559  0.04971946  0.58501553    -0.76700
O603        O  0.69384735  0.02167644  0.56782621    -0.86200
O604        O  0.64249794  0.00204559  0.56677419    -0.85900
O605        O  0.71234169  0.97199963  0.56764923    -0.72600
O606        O  0.66430869  0.95247129  0.56712349    -0.84700
Zr607      Zr  0.67875405  0.98386436  0.49474008     2.26400
Zr608      Zr  0.72796566  0.00607227  0.54219211     2.06300
Zr609      Zr  0.63056979  0.96785427  0.54129879     2.10000
Zr610      Zr  0.65879678  0.03610082  0.54393248     1.78800
O611        O  0.60892433  0.92857096  0.54784358    -0.93600
O612        O  0.68508576  0.07228933  0.55130078    -0.41400
O613        O  0.64469229  0.00251289  0.51732474    -0.78000
O614        O  0.69184557  0.01993323  0.51886055    -0.96700
O615        O  0.71419172  0.97073054  0.51924109    -0.90000
O616        O  0.66473319  0.94956272  0.51902545    -0.92800
C617        C  0.64792109  0.04218247  0.60764934     1.00900
C618        C  0.61842456  0.96211772  0.60320534     1.13900
C619        C  0.73531941  0.00138545  0.61292564     1.04600
O620        O  0.74266287  0.04895772  0.54149298    -0.95000
O621        O  0.73704591  0.00880338  0.49181667    -0.90700
O622        O  0.70023766  0.01429626  0.47236606    -0.83900
C623        C  0.72370704  0.01230760  0.47065550     1.11300
O624        O  0.70256818  0.91015334  0.58094184    -0.97000
Zr625      Zr  0.69940037  0.93697497  0.54403510     1.88900
O626        O  0.71039022  0.95569108  0.47650151    -0.73600
O627        O  0.77180104  0.99280500  0.54079962    -0.52900
O628        O  0.73994832  0.91992009  0.55726311    -0.97500
O629        O  0.67901304  0.89803638  0.53285482    -0.54800
O630        O  0.72087297  0.92653182  0.50599770    -0.74100
C631        C  0.72298072  0.93648849  0.48432120     0.98200
O632        O  0.66526832  0.00037787  0.45414378    -0.62900
O633        O  0.59049724  0.98936043  0.53458001    -0.57700
O634        O  0.64696438  0.95976012  0.47331360    -0.94400
O635        O  0.61628531  0.95265777  0.50133247    -0.92900
O636        O  0.61735033  0.05510985  0.53834706    -0.93200
O637        O  0.65302670  0.06439821  0.50847931    -0.92000
C638        C  0.62606574  0.95012709  0.47961468     1.17100
H639        H  0.62836318  0.00715837  0.57685647     0.33000
H640        H  0.69684479  0.03432675  0.50923896     0.43900
H641        H  0.66013058  0.93513611  0.50941836     0.37400
H642        H  0.72518350  0.96579479  0.57890953     0.33900
H643        H  0.67376892  0.08693860  0.54889465     0.25700
H644        H  0.78098750  0.00629810  0.54930653     0.31600
H645        H  0.75110391  0.93452829  0.55816675     0.37500
H646        H  0.60706423  0.04818746  0.55204844     0.32000
H647        H  0.59287459  0.00628290  0.54146774     0.30800
H648        H  0.62157842  0.91547905  0.54393251     0.32500
H649        H  0.66437516  0.89708192  0.54414629     0.31500
H650        H  0.65338906  0.05339618  0.49366450     0.35500
H651        H  0.66923376  0.98728078  0.44172239     0.28200
H652        H  0.68496797  0.96687239  0.64067959     0.32500
H653        H  0.68783047  0.91464496  0.59126992     0.35300
H654        H  0.58927116  0.99201031  0.51628978     0.27900
H655        H  0.64673141  0.00186665  0.45445437     0.40800
H656        H  0.73906886  0.05492169  0.52427810     0.30800
H657        H  0.68868359  0.07200293  0.56946765     0.38500
H658        H  0.69056894  0.88463432  0.53885641     0.30300
H659        H  0.77289054  0.97842199  0.55250947     0.30400
H660        H  0.70082265  0.95001077  0.62234894     0.30600
Zr661      Zr  0.76153463  0.94134587  0.24415535     2.17500
O662        O  0.77343354  0.94375930  0.20000242    -0.51700
O663        O  0.78444142  0.98016172  0.23894328    -0.74900
O664        O  0.72873711  0.95588794  0.21949115    -0.81700
O665        O  0.79716678  0.88017068  0.24917518    -0.83500
O666        O  0.72555804  0.99232164  0.24010025    -0.79100
O667        O  0.78440765  0.90978686  0.22141762    -0.90700
O668        O  0.81821769  0.97164753  0.26252058    -0.76700
O669        O  0.76627287  0.96995092  0.27508521    -0.86200
O670        O  0.79399477  0.92598136  0.27069969    -0.85900
O671        O  0.72006753  0.94782094  0.26259465    -0.72600
O672        O  0.74451083  0.90321422  0.25988483    -0.84700
Zr673      Zr  0.74277864  0.92719770  0.33797196     2.26400
Zr674      Zr  0.72776922  0.98151506  0.29053750     2.06300
Zr675      Zr  0.77651448  0.88916575  0.28818321     2.10000
Zr676      Zr  0.79874778  0.95768197  0.30059860     1.78800
O677        O  0.75719497  0.84942008  0.27837696    -0.93600
O678        O  0.81049195  0.00055436  0.30974553    -0.41400
O679        O  0.78333614  0.92038201  0.31952434    -0.78000
O680        O  0.75924453  0.96520212  0.31930500    -0.96700
O681        O  0.71105130  0.94410077  0.31043615    -0.90000
O682        O  0.73730992  0.89487968  0.30838112    -0.92800
C683        C  0.80653533  0.98519791  0.24654276     1.00900
C684        C  0.79733723  0.89042081  0.22751847     1.13900
C685        C  0.72497646  0.97915739  0.21863988     1.04600
O686        O  0.73681241  0.02601760  0.28913638    -0.95000
O687        O  0.72539980  0.99588888  0.33853099    -0.90700
O688        O  0.73753774  0.96340280  0.36390264    -0.83900
C689        C  0.73086951  0.98626573  0.36109368     1.11300
O690        O  0.68107689  0.91215055  0.24268513    -0.97000
Zr691      Zr  0.70525488  0.91066442  0.28149891     1.88900
O692        O  0.70852529  0.89889552  0.34963871    -0.73600
O693        O  0.68359582  0.99377855  0.29034028    -0.52900
O694        O  0.66477747  0.92976090  0.29166786    -0.97500
O695        O  0.69577424  0.86988034  0.26401699    -0.54800
O696        O  0.68763897  0.88629980  0.31511490    -0.74100
C697        C  0.69215253  0.88536965  0.33857295     0.98200
O698        O  0.73575482  0.92824321  0.38319587    -0.62900
O699        O  0.81641194  0.86738420  0.29524902    -0.57700
O700        O  0.77343878  0.89859409  0.35706853    -0.94400
O701        O  0.78499576  0.87022999  0.32791753    -0.92900
O702        O  0.83927895  0.93637203  0.30403674    -0.93200
O703        O  0.81611168  0.96622354  0.34183655    -0.92000
C704        C  0.78421111  0.87810331  0.35038110     1.17100
H705        H  0.80974689  0.92316793  0.26223475     0.33000
H706        H  0.76444627  0.97758699  0.33110791     0.43900
H707        H  0.73358701  0.87892371  0.31583701     0.37400
H708        H  0.70538733  0.95282881  0.25312186     0.33900
H709        H  0.82549916  0.00381171  0.29943322     0.25700
H710        H  0.67568497  0.98243655  0.27816361     0.31600
H711        H  0.65331638  0.91560877  0.29448435     0.37500
H712        H  0.83681395  0.92327891  0.31692678     0.32000
H713        H  0.81580416  0.85218871  0.28481240     0.30800
H714        H  0.75516053  0.84100173  0.29475737     0.32500
H715        H  0.70341063  0.85768844  0.27588568     0.31500
H716        H  0.80189023  0.96445762  0.35354886     0.35500
H717        H  0.71733464  0.92793261  0.38572869     0.28200
H718        H  0.77364862  0.96174266  0.19553302     0.32500
H719        H  0.66365456  0.90808831  0.24742957     0.35300
H720        H  0.82919998  0.87805485  0.28729510     0.27900
H721        H  0.74166272  0.91184216  0.38969866     0.40800
H722        H  0.73484294  0.03086868  0.27134857     0.30800
H723        H  0.79695393  0.01104215  0.30229343     0.38500
H724        H  0.70632174  0.86855252  0.24886990     0.30300
H725        H  0.67724151  0.98818798  0.30679094     0.30400
H726        H  0.75943921  0.93683499  0.19008886     0.30600
Zr727      Zr  0.80730726  0.01541342  0.99679740     2.17500
O728        O  0.82871930  0.99689739  0.96112695    -0.51700
O729        O  0.78372693  0.04851519  0.97801216    -0.74900
O730        O  0.77987444  0.99839953  0.96745196    -0.81700
O731        O  0.86364130  0.05422961  0.01020247    -0.83500
O732        O  0.75097581  0.97740820  0.99088337    -0.79100
O733        O  0.83586043  0.04568683  0.97930648    -0.90700
O734        O  0.77164150  0.07034192  0.01230595    -0.76700
O735        O  0.77013614  0.02101614  0.02170781    -0.86200
O736        O  0.81746608  0.04634470  0.02656361    -0.85900
O737        O  0.79624202  0.97558457  0.01431262    -0.72600
O738        O  0.84349423  0.99820855  0.01671517    -0.84700
Zr739      Zr  0.81047042  0.99479367  0.09095862     2.26400
Zr740      Zr  0.75971920  0.98161948  0.04043275     2.06300
Zr741      Zr  0.85349223  0.02937907  0.04695169     2.10000
Zr742      Zr  0.78205220  0.05117866  0.05177011     1.78800
O743        O  0.89468303  0.01037206  0.04041428    -0.93600
O744        O  0.73766137  0.06218877  0.05542716    -0.41400
O745        O  0.81816758  0.03558216  0.07392356    -0.78000
O746        O  0.77373614  0.01212152  0.07001277    -0.96700
O747        O  0.79623478  0.96405890  0.06195497    -0.90000
O748        O  0.84576644  0.98932088  0.06432071    -0.92800
C749        C  0.77318997  0.06700208  0.98868551     1.00900
C750        C  0.85422712  0.05799877  0.98834260     1.13900
C751        C  0.76087485  0.98452342  0.96894915     1.04600
O752        O  0.71564295  0.99343014  0.03594003    -0.95000
O753        O  0.74170721  0.98048842  0.08754752    -0.90700
O754        O  0.77321545  0.98925421  0.11497184    -0.83900
C755        C  0.75019152  0.98480598  0.11073777     1.11300
O756        O  0.83618345  0.93937069  0.99436083    -0.97000
Zr757      Zr  0.83198456  0.95882406  0.03521684     1.88900
O758        O  0.84035400  0.96186171  0.10370147    -0.73600
O759        O  0.74798740  0.93776470  0.04107980    -0.52900
O760        O  0.81465639  0.91697333  0.03680602    -0.97500
O761        O  0.87552016  0.94888278  0.02469143    -0.54800
O762        O  0.84898908  0.93709179  0.07057171    -0.74100
C763        C  0.85178196  0.94341557  0.09328953     0.98200
O764        O  0.80990083  0.98688634  0.13610780    -0.62900
O765        O  0.87513225  0.06870399  0.05340118    -0.57700
O766        O  0.83153632  0.02812782  0.11192919    -0.94400
O767        O  0.86708876  0.03382130  0.09010498    -0.92900
O768        O  0.79893149  0.09300204  0.05615564    -0.93200
O769        O  0.76997620  0.06768822  0.09236760    -0.92000
C770        C  0.85419979  0.03522771  0.11022397     1.17100
H771        H  0.82002047  0.06279987  0.01966467     0.33000
H772        H  0.76079945  0.01784868  0.08114824     0.43900
H773        H  0.86135176  0.98468798  0.07243173     0.37400
H774        H  0.79277445  0.96371241  0.00134150     0.33900
H775        H  0.73439645  0.07514395  0.04247886     0.25700
H776        H  0.74549344  0.93381792  0.05899772     0.31600
H777        H  0.79867919  0.91834492  0.02737766     0.37500
H778        H  0.81634846  0.09022564  0.06214872     0.32000
H779        H  0.86628691  0.07702087  0.06738036     0.30800
H780        H  0.89761380  0.01205638  0.02222495     0.32500
H781        H  0.88455320  0.94728230  0.04082780     0.31500
H782        H  0.77743193  0.05576736  0.10461980     0.35500
H783        H  0.80886631  0.96852754  0.13843052     0.28200
H784        H  0.82445823  0.00793066  0.94675463     0.32500
H785        H  0.84381382  0.95232440  0.98362294     0.35300
H786        H  0.89184478  0.06396976  0.06019828     0.27900
H787        H  0.82686338  0.99104873  0.14230356     0.40800
H788        H  0.70704852  0.97770777  0.03173313     0.30800
H789        H  0.72871847  0.04728035  0.04938693     0.38500
H790        H  0.88209917  0.96439848  0.01714430     0.30300
H791        H  0.73091718  0.93750702  0.03375092     0.30400
H792        H  0.84681571  0.99961054  0.96414009     0.30600
Zr793      Zr  0.85189054  0.69630941  0.05921870     2.17500
O794        O  0.83245015  0.72006406  0.09294516    -0.51700
O795        O  0.81663086  0.67979410  0.03697161    -0.74900
O796        O  0.82457725  0.72690796  0.04293773    -0.81700
O797        O  0.86089187  0.63829539  0.09816965    -0.83500
O798        O  0.84805852  0.74985719  0.01588897    -0.79100
O799        O  0.83180170  0.66788552  0.08764058    -0.90700
O800        O  0.83464826  0.66347434  0.00220353    -0.76700
O801        O  0.86493448  0.70113850  0.01677627    -0.86200
O802        O  0.86630727  0.65608334  0.04697681    -0.85900
O803        O  0.88190349  0.72952896  0.05757177    -0.72600
O804        O  0.88389650  0.68668231  0.08879087    -0.84700
Zr805      Zr  0.94376029  0.68123536  0.03393101     2.26400
Zr806      Zr  0.89611758  0.73296111  0.01474694     2.06300
Zr807      Zr  0.89924328  0.64675585  0.07564826     2.10000
Zr808      Zr  0.87971030  0.66103394  0.00497844     1.78800
O809        O  0.91012349  0.63706266  0.11889304    -0.93600
O810        O  0.87303927  0.67616143  0.96242341    -0.41400
O811        O  0.91282404  0.64940146  0.03322003    -0.78000
O812        O  0.91172215  0.69189286  0.00343949    -0.96700
O813        O  0.92855736  0.72210321  0.04439550    -0.90000
O814        O  0.93059464  0.67818763  0.07619050    -0.92800
C815        C  0.81561741  0.66972326  0.01544693     1.00900
C816        C  0.83875420  0.64794689  0.09916139     1.13900
C817        C  0.82634782  0.74471811  0.02738222     1.04600
O818        O  0.88922403  0.73844999  0.97005336    -0.95000
O819        O  0.94447836  0.73854995  0.00113361    -0.90700
O820        O  0.96317103  0.70045961  0.99953232    -0.83900
C821        C  0.96427740  0.72378733  0.99599746     1.11300
O822        O  0.88829472  0.73845431  0.11784115    -0.97000
Zr823      Zr  0.91479766  0.71858720  0.08646557     1.88900
O824        O  0.97577095  0.70781540  0.05245389    -0.73600
O825        O  0.90140656  0.77799071  0.01724513    -0.52900
O826        O  0.92276238  0.76333581  0.08598987    -0.97500
O827        O  0.92469028  0.70841559  0.12990373    -0.54800
O828        O  0.95981374  0.72122545  0.08938408    -0.74100
C829        C  0.97737163  0.71958983  0.07323092     0.98200
O830        O  0.96993780  0.65296573  0.00920663    -0.62900
O831        O  0.89141940  0.60258636  0.06822736    -0.57700
O832        O  0.96677114  0.64706567  0.05284116    -0.94400
O833        O  0.93885551  0.62464053  0.07505936    -0.92900
O834        O  0.86306696  0.61915989  0.99957380    -0.93200
O835        O  0.90448101  0.63489505  0.97692302    -0.92000
C836        C  0.96103132  0.62866243  0.06689160     1.17100
H837        H  0.85320883  0.64382318  0.04806879     0.33000
H838        H  0.91856702  0.69231640  0.98675053     0.43900
H839        H  0.94426895  0.67361564  0.08727183     0.37400
H840        H  0.87407704  0.74512053  0.06249135     0.33900
H841        H  0.85831536  0.66684027  0.95634602     0.25700
H842        H  0.88745163  0.78386446  0.02796942     0.31600
H843        H  0.93583287  0.76575682  0.09891320     0.37500
H844        H  0.86298449  0.61164401  0.01650966     0.32000
H845        H  0.87344770  0.60010943  0.07195008     0.30800
H846        H  0.90402003  0.65169336  0.12846864     0.32500
H847        H  0.93901779  0.71915453  0.13428727     0.31500
H848        H  0.91220841  0.62183673  0.98778350     0.35500
H849        H  0.96312707  0.65370602  0.99197103     0.28200
H850        H  0.81431806  0.72072852  0.08892254     0.32500
H851        H  0.87911356  0.75199976  0.10886898     0.35300
H852        H  0.89262001  0.60070654  0.04988537     0.27900
H853        H  0.98671065  0.66065886  0.00827822     0.40800
H854        H  0.89276043  0.75630283  0.96684173     0.30800
H855        H  0.86671486  0.69351571  0.96440535     0.38500
H856        H  0.93187646  0.69126411  0.12951650     0.30300
H857        H  0.91662672  0.78001386  0.02766274     0.30400
H858        H  0.83807949  0.73746731  0.09055301     0.30600
Zr859      Zr  0.61407113  0.76114575  0.94669204     2.17500
O860        O  0.57589710  0.77843349  0.92761836    -0.51700
O861        O  0.62075604  0.79773015  0.91928828    -0.74900
O862        O  0.57985621  0.77049224  0.97623503    -0.81700
O863        O  0.63386030  0.72785328  0.89162639    -0.83500
O864        O  0.59691526  0.77105884  0.01541538    -0.79100
O865        O  0.59909970  0.73312612  0.91451978    -0.90700
O866        O  0.66226962  0.80611047  0.91618860    -0.76700
O867        O  0.64360092  0.78439495  0.97093770    -0.86200
O868        O  0.65252330  0.75691793  0.92457023    -0.85900
O869        O  0.61824704  0.74006080  0.98637855    -0.72600
O870        O  0.62382920  0.71694708  0.94377910    -0.84700
Zr871      Zr  0.69498371  0.71490023  0.98621926     2.26400
Zr872      Zr  0.64728271  0.76365732  0.01149142     2.06300
Zr873      Zr  0.66343933  0.71372822  0.92252786     2.10000
Zr874      Zr  0.68176287  0.77980188  0.94720276     1.78800
O875        O  0.65143413  0.67371601  0.90490341    -0.93600
O876        O  0.68280344  0.82134919  0.96562775    -0.41400
O877        O  0.69376242  0.73618090  0.94615215    -0.78000
O878        O  0.68464957  0.75899003  0.98556968    -0.96700
O879        O  0.65661411  0.71934029  0.00889237    -0.90000
O880        O  0.66454112  0.69309020  0.96220281    -0.92800
C881        C  0.63945893  0.80928829  0.90958509     1.00900
C882        C  0.61051037  0.72537448  0.89492100     1.13900
C883        C  0.57687554  0.77133959  0.00006453     1.04600
O884        O  0.64489323  0.80572006  0.02852279    -0.95000
O885        O  0.69502281  0.76843526  0.02768390    -0.90700
O886        O  0.71432862  0.73086860  0.02303119    -0.83900
C887        C  0.71578460  0.75402461  0.02765821     1.11300
O888        O  0.58414935  0.68406867  0.97592504    -0.97000
Zr889      Zr  0.62703082  0.69712408  0.98384142     1.88900
O890        O  0.68802522  0.68283811  0.01825222    -0.73600
O891        O  0.64204178  0.74861055  0.05419752    -0.52900
O892        O  0.60205201  0.69524723  0.02192185    -0.97500
O893        O  0.62490861  0.65648360  0.96343050    -0.54800
O894        O  0.64879381  0.66904918  0.01103309    -0.74100
C895        C  0.66964668  0.66817776  0.02268242     0.98200
O896        O  0.74027711  0.71016574  0.98101826    -0.62900
O897        O  0.68665056  0.72036097  0.88395665    -0.57700
O898        O  0.71293191  0.67963399  0.96457378    -0.94400
O899        O  0.70496756  0.69600088  0.92756689    -0.92900
O900        O  0.70819924  0.77870944  0.91013914    -0.93200
O901        O  0.72452575  0.79315662  0.95569584    -0.92000
C902        C  0.70976330  0.67690839  0.94112755     1.17100
H903        H  0.65200711  0.76324420  0.90795132     0.33000
H904        H  0.69963098  0.76837441  0.98831403     0.43900
H905        H  0.66753779  0.67538872  0.96095548     0.37400
H906        H  0.60264056  0.73610968  0.99405363     0.33900
H907        H  0.66588650  0.82865643  0.96259562     0.25700
H908        H  0.62850767  0.75931057  0.06116261     0.31600
H909        H  0.60629357  0.67902263  0.02997994     0.37500
H910        H  0.71754712  0.76261777  0.91120803     0.32000
H911        H  0.67581067  0.71381060  0.87052002     0.30800
H912        H  0.65124111  0.66191441  0.91919728     0.32500
H913        H  0.61479342  0.65916740  0.94807199     0.31500
H914        H  0.72712687  0.80797902  0.94487930     0.35500
H915        H  0.74536120  0.72446723  0.97048050     0.28200
H916        H  0.57191657  0.79393728  0.93688176     0.32500
H917        H  0.58052313  0.68951463  0.95855798     0.35300
H918        H  0.68625105  0.73870432  0.88137550     0.27900
H919        H  0.74834667  0.71272017  0.99745338     0.40800
H920        H  0.64072598  0.80326230  0.04638151     0.30800
H921        H  0.68347709  0.81828692  0.98388573     0.38500
H922        H  0.61443731  0.64595231  0.97440945     0.30300
H923        H  0.63429242  0.73198668  0.05244774     0.30400
H924        H  0.56221797  0.76679759  0.93173667     0.30600
Zr925      Zr  0.44139308  0.81077132  0.96826314     2.17500
O926        O  0.47703665  0.83527774  0.98224414    -0.51700
O927        O  0.47171996  0.78043376  0.95169547    -0.74900
O928        O  0.45759112  0.79747889  0.00712220    -0.81700
O929        O  0.43848576  0.86332475  0.92073409    -0.83500
O930        O  0.44372054  0.75868608  0.00231268    -0.79100
O931        O  0.46369913  0.84414257  0.94944165    -0.90700
O932        O  0.45149735  0.75815788  0.92196599    -0.76700
O933        O  0.42520595  0.77028986  0.95936607    -0.86200
O934        O  0.42709569  0.81255539  0.92619345    -0.85900
O935        O  0.40990758  0.80356326  0.99999371    -0.72600
O936        O  0.41162083  0.84445483  0.96830385    -0.84700
Zr937      Zr  0.34832887  0.80045129  0.94627947     2.26400
Zr938      Zr  0.39383697  0.76280066  0.99033580     2.06300
Zr939      Zr  0.39688682  0.84601174  0.92596923     2.10000
Zr940      Zr  0.40928182  0.77302196  0.91787691     1.78800
O941        O  0.39291053  0.89082432  0.93290429    -0.93600
O942        O  0.40581495  0.72777520  0.91462386    -0.41400
O943        O  0.37933351  0.80656306  0.91533299    -0.78000
O944        O  0.37736788  0.76566393  0.94811882    -0.96700
O945        O  0.36314828  0.79611385  0.98833548    -0.90000
O946        O  0.36461232  0.84011172  0.95606956    -0.92800
C947        C  0.47061716  0.76300073  0.93537347     1.00900
C948        C  0.45975689  0.85935242  0.93145867     1.13900
C949        C  0.46226044  0.77441440  0.00829268     1.04600
O950        O  0.39740356  0.71736865  0.99057136    -0.95000
O951        O  0.34619856  0.74608180  0.98755810    -0.90700
O952        O  0.32093450  0.77184893  0.96405033    -0.83900
C953        C  0.32384807  0.75251193  0.97754710     1.11300
O954        O  0.40626383  0.85975631  0.02542381    -0.97000
Zr955      Zr  0.37901628  0.83607134  0.99790575     1.88900
O956        O  0.31516245  0.81976365  0.96982869    -0.73600
O957        O  0.38766572  0.75840798  0.03517249    -0.52900
O958        O  0.37389676  0.82538880  0.04188154    -0.97500
O959        O  0.36483731  0.87958787  0.99711424    -0.54800
O960        O  0.33419830  0.83505430  0.00443864    -0.74100
C961        C  0.31476432  0.82969636  0.99145964     0.98200
O962        O  0.32614574  0.77627957  0.91488494    -0.62900
O963        O  0.40010320  0.85167727  0.88085527    -0.57700
O964        O  0.32782390  0.82885982  0.91716217    -0.94400
O965        O  0.35738580  0.85667277  0.90574551    -0.92900
O966        O  0.42719224  0.78587608  0.87800774    -0.93200
O967        O  0.38605937  0.75639895  0.88254906    -0.92000
C968        C  0.33490723  0.84829488  0.90520374     1.17100
H969        H  0.44073427  0.81549147  0.91475112     0.33000
H970        H  0.36887340  0.75039277  0.94397125     0.43900
H971        H  0.35191281  0.85312823  0.95490549     0.37400
H972        H  0.41603239  0.80347125  0.01698807     0.33900
H973        H  0.42115287  0.72223972  0.90571482     0.25700
H974        H  0.37991456  0.77449492  0.04027193     0.31600
H975        H  0.36516589  0.84004419  0.04922271     0.37500
H976        H  0.44350531  0.77689336  0.87688810     0.32000
H977        H  0.41641906  0.85979041  0.87794674     0.30800
H978        H  0.40182212  0.89368089  0.94887364     0.32500
H979        H  0.37991281  0.88932546  0.99284259     0.31500
H980        H  0.37425784  0.76999273  0.87756960     0.35500
H981        H  0.33337956  0.78170862  0.89877204     0.28200
H982        H  0.49062093  0.82329043  0.98688365     0.32500
H983        H  0.41985422  0.86585622  0.01449112     0.35300
H984        H  0.40234769  0.83455192  0.87423736     0.27900
H985        H  0.33246650  0.75890712  0.91699748     0.40800
H986        H  0.41408724  0.71362929  0.98337183     0.30800
H987        H  0.40819826  0.72153809  0.93193970     0.38500
H988        H  0.36131435  0.88371830  0.01478395     0.30300
H989        H  0.37397306  0.74617521  0.03675538     0.30400
H990        H  0.47157888  0.84330198  0.99797989     0.30600
Zr991      Zr  0.19266789  0.78706184  0.01126651     2.17500
O992        O  0.23835458  0.78652840  0.01306949    -0.51700
O993        O  0.18586737  0.82021117  0.97921068    -0.74900
O994        O  0.21262675  0.76882118  0.97553494    -0.81700
O995        O  0.19989023  0.81370711  0.07289569    -0.83500
O996        O  0.19378331  0.73127034  0.97230649    -0.79100
O997        O  0.20781550  0.82359999  0.03294374    -0.90700
O998        O  0.14541848  0.83210068  0.98283280    -0.76700
O999        O  0.15500063  0.78159120  0.98782566    -0.86200
O1000       O  0.16199338  0.81009992  0.03398408    -0.85900
O1001       O  0.18323573  0.74306680  0.01376027    -0.72600
O1002       O  0.18790219  0.76679908  0.04953839    -0.84700
Zr1003     Zr  0.11248522  0.74311327  0.05126557     2.26400
Zr1004     Zr  0.14626169  0.73717004  0.98770513     2.06300
Zr1005     Zr  0.16158838  0.78990153  0.07378329     2.10000
Zr1006     Zr  0.12491765  0.80525326  0.01156028     1.78800
O1007       O  0.18723663  0.78131294  0.11071462    -0.93600
O1008       O  0.10202116  0.80294560  0.97201315    -0.41400
O1009       O  0.12181153  0.78714460  0.05264388    -0.78000
O1010       O  0.11690652  0.76255042  0.01104109    -0.96700
O1011       O  0.14283724  0.71835515  0.02906234    -0.90000
O1012       O  0.15002600  0.74688355  0.07517331    -0.92800
C1013       C  0.16691687  0.83429001  0.97305056     1.00900
C1014       C  0.20617839  0.82939237  0.05607758     1.13900
C1015       C  0.21429092  0.74537532  0.97194286     1.04600
O1016       O  0.14121758  0.74693983  0.94347651    -0.95000
O1017       O  0.09624830  0.73058707  0.98328589    -0.90700
O1018       O  0.07865571  0.73360614  0.02205091    -0.83900
C1019       C  0.07613486  0.73143697  0.99830047     1.11300
O1020       O  0.22463188  0.71184499  0.05060114    -0.97000
Zr1021     Zr  0.18055631  0.72432528  0.05312096     1.88900
O1022       O  0.11759028  0.70445179  0.07546406    -0.73600
O1023       O  0.14431031  0.69326206  0.97610160    -0.52900
O1024       O  0.19045065  0.68445777  0.03347099    -0.97500
O1025       O  0.20294286  0.72733510  0.09285149    -0.54800
O1026       O  0.15903647  0.69548109  0.07984213    -0.74100
C1027       C  0.13598607  0.69178513  0.08484430     0.98200
O1028       O  0.06996801  0.73014987  0.06220864    -0.62900
O1029       O  0.14723226  0.82972652  0.09075633    -0.57700
O1030       O  0.09862885  0.76791621  0.08675319    -0.94400
O1031       O  0.13361368  0.78057533  0.10688912    -0.92900
O1032       O  0.12054598  0.84749189  0.02797714    -0.93200
O1033       O  0.08183411  0.81840713  0.02006446    -0.92000
C1034       C  0.11005168  0.77750067  0.10543376     1.17100
H1035       H  0.16411181  0.82790278  0.03506661     0.33000
H1036       H  0.10139455  0.76644433  0.00303796     0.43900
H1037       H  0.14833533  0.74063587  0.09204200     0.37400
H1038       H  0.19837843  0.73336622  0.01174262     0.33900
H1039       H  0.09288528  0.81905383  0.97009204     0.25700
H1040       H  0.14262434  0.68408062  0.99211394     0.31600
H1041       H  0.18196124  0.68524317  0.01701209     0.37500
H1042       H  0.11848415  0.84533979  0.04621900     0.32000
H1043       H  0.15442181  0.83014303  0.10783163     0.30800
H1044       H  0.20419279  0.77716403  0.10432851     0.32500
H1045       H  0.20844414  0.71000519  0.09684380     0.31500
H1046       H  0.07854523  0.83333423  0.00945141     0.35500
H1047       H  0.07072465  0.71172629  0.06406111     0.28200
H1048       H  0.24254139  0.78801662  0.03101801     0.32500
H1049       H  0.23409175  0.72687473  0.05545137     0.35300
H1050       H  0.15648420  0.84264427  0.08138270     0.27900
H1051       H  0.06665970  0.73620380  0.07932437     0.40800
H1052       H  0.13069908  0.76233104  0.94309042     0.30800
H1053       H  0.11499033  0.80330253  0.95882125     0.38500
H1054       H  0.18987927  0.73097310  0.10545890     0.30300
H1055       H  0.12773203  0.69157939  0.96792838     0.30400
H1056       H  0.24349473  0.80257622  0.00545491     0.30600
Zr1057     Zr  0.24521898  0.95511090  0.04817409     2.17500
O1058       O  0.21942155  0.95300128  0.01067757    -0.51700
O1059       O  0.20311289  0.95044263  0.06475461    -0.74900
O1060       O  0.25097497  0.91387343  0.03020676    -0.81700
O1061       O  0.25885116  0.02266277  0.03300010    -0.83500
O1062       O  0.26013969  0.89117531  0.06450932    -0.79100
O1063       O  0.24715542  0.98620290  0.01483685    -0.90700
O1064       O  0.19767495  0.93913396  0.10374602    -0.76700
O1065       O  0.24737111  0.93094752  0.08585308    -0.86200
O1066       O  0.23309629  0.98359307  0.08098311    -0.85900
O1067       O  0.28789760  0.93924280  0.05108025    -0.72600
O1068       O  0.27505838  0.98769538  0.05025957    -0.84700
Zr1069     Zr  0.30787993  0.97409125  0.12290972     2.26400
Zr1070     Zr  0.28921837  0.91544132  0.08905484     2.06300
Zr1071     Zr  0.26376726  0.01634690  0.08204711     2.10000
Zr1072     Zr  0.23524304  0.95841358  0.11882982     1.78800
O1073       O  0.28905873  0.05394256  0.08142834    -0.93600
O1074       O  0.22684321  0.92611300  0.15002578    -0.41400
O1075       O  0.26652923  0.98871961  0.11606579    -0.78000
O1076       O  0.27745066  0.94113202  0.12380600    -0.96700
O1077       O  0.31927708  0.94756745  0.08937853    -0.90000
O1078       O  0.30667534  0.00102799  0.08662465    -0.92800
C1079       C  0.19704286  0.93375961  0.08070732     1.00900
C1080       C  0.25286111  0.00934785  0.01296247     1.13900
C1081       C  0.25515326  0.89288816  0.04109911     1.04600
O1082       O  0.28253639  0.87606233  0.11089968    -0.95000
O1083       O  0.32081439  0.90501257  0.12045312    -0.90700
O1084       O  0.32490398  0.93831227  0.14606552    -0.83900
C1085       C  0.32997752  0.91569521  0.13980955     1.11300
O1086       O  0.31274448  0.96961574  0.00773991    -0.97000
Zr1087     Zr  0.31695174  0.97302801  0.05295929     1.88900
O1088       O  0.35076042  0.98373306  0.11228294    -0.73600
O1089       O  0.31930748  0.89403302  0.06213276    -0.52900
O1090       O  0.34819235  0.94924691  0.02955260    -0.97500
O1091       O  0.32927358  0.01416193  0.03813915    -0.54800
O1092       O  0.35725598  0.97076692  0.07260895    -0.74100
C1093       C  0.36495479  0.97724130  0.09412935     0.98200
O1094       O  0.33308432  0.99035178  0.15729493    -0.62900
O1095       O  0.22824305  0.04525852  0.07909441    -0.57700
O1096       O  0.28531784  0.00085183  0.15230807    -0.94400
O1097       O  0.25820142  0.02609580  0.13067787    -0.92900
O1098       O  0.20334384  0.99058969  0.12567399    -0.93200
O1099       O  0.23571268  0.96991252  0.16274555    -0.92000
C1100       C  0.26807248  0.01790779  0.15222738     1.17100
H1101       H  0.21668026  0.99102286  0.07826607     0.33000
H1102       H  0.27841554  0.93172605  0.13925025     0.43900
H1103       H  0.31857385  0.01441606  0.08801010     0.37400
H1104       H  0.29257170  0.92898366  0.03701296     0.33900
H1105       H  0.20913741  0.92132533  0.14757629     0.25700
H1106       H  0.33512797  0.89346050  0.07188373     0.31600
H1107       H  0.34371512  0.93152965  0.03224928     0.37500
H1108       H  0.18821508  0.98137485  0.13083511     0.32000
H1109       H  0.21634726  0.03928009  0.09191048     0.30800
H1110       H  0.29441658  0.05610935  0.09901094     0.32500
H1111       H  0.31406481  0.02102300  0.02975410     0.31500
H1112       H  0.25271736  0.96520358  0.16879889     0.35500
H1113       H  0.33161851  0.00881380  0.15634392     0.28200
H1114       H  0.20669294  0.94045711  0.01477253     0.32500
H1115       H  0.29507089  0.96490126  0.00487685     0.35300
H1116       H  0.23463776  0.06114980  0.08585365     0.27900
H1117       H  0.32459806  0.98551209  0.17300218     0.40800
H1118       H  0.29222059  0.86346277  0.10130969     0.30800
H1119       H  0.23685465  0.91132582  0.14485060     0.38500
H1120       H  0.34112651  0.01070643  0.02433464     0.30300
H1121       H  0.31373376  0.87646987  0.06168683     0.30400
H1122       H  0.23004364  0.94494025  0.99780145     0.30600
Zr1123     Zr  0.17846859  0.99668752  0.79915269     2.17500
O1124       O  0.16850749  0.00495493  0.75511754    -0.51700
O1125       O  0.15885962  0.03833754  0.79975470    -0.74900
O1126       O  0.14184202  0.97282734  0.78915248    -0.81700
O1127       O  0.24413434  0.00947016  0.78329462    -0.83500
O1128       O  0.12027845  0.96690337  0.82405018    -0.79100
O1129       O  0.20636484  0.00215854  0.76493922    -0.90700
O1130       O  0.15381833  0.05114614  0.83972926    -0.76700
O1131       O  0.15411092  0.99234702  0.83591365    -0.86200
O1132       O  0.19851682  0.02387700  0.82831340    -0.85900
O1133       O  0.18026389  0.95240009  0.80936926    -0.72600
O1134       O  0.22044387  0.98140150  0.80443617    -0.84700
Zr1135     Zr  0.21693983  0.95908735  0.88110837     2.26400
Zr1136     Zr  0.15576173  0.94871164  0.84709104     2.06300
Zr1137     Zr  0.24061553  0.00792570  0.83337617     2.10000
Zr1138     Zr  0.17335085  0.01855478  0.86530223     1.78800
O1139       O  0.28576429  0.00011848  0.83301001    -0.93600
O1140       O  0.12906255  0.02191619  0.87629195    -0.41400
O1141       O  0.21471929  0.00213119  0.86903959    -0.78000
O1142       O  0.17452741  0.97484165  0.87793427    -0.96700
O1143       O  0.19788681  0.93316415  0.85107999    -0.90000
O1144       O  0.24284803  0.96458472  0.84501560    -0.92800
C1145       C  0.15136977  0.05423071  0.81608886     1.00900
C1146       C  0.22965246  0.00663457  0.76304525     1.13900
C1147       C  0.12152810  0.97450639  0.80138818     1.04600
O1148       O  0.12011318  0.94792152  0.87539920    -0.95000
O1149       O  0.15976805  0.91690847  0.88036348    -0.90700
O1150       O  0.19804145  0.92196308  0.89829569    -0.83900
C1151       C  0.17731256  0.91045965  0.89586381     1.11300
O1152       O  0.21761123  0.92824124  0.77098940    -0.97000
Zr1153     Zr  0.22311466  0.93823724  0.81501588     1.88900
O1154       O  0.25007815  0.92801653  0.87951339    -0.73600
O1155       O  0.13965187  0.91264355  0.82482381    -0.52900
O1156       O  0.21289667  0.89449084  0.80867389    -0.97500
O1157       O  0.26224208  0.94239987  0.79199480    -0.54800
O1158       O  0.25174084  0.91263516  0.84009145    -0.74100
C1159       C  0.25915351  0.91340046  0.86289099     0.98200
O1160       O  0.21378752  0.96272873  0.92650638    -0.62900
O1161       O  0.25328573  0.05112731  0.82752793    -0.57700
O1162       O  0.24713745  0.98193905  0.90464281    -0.94400
O1163       O  0.24861124  0.01770978  0.88159319    -0.92900
O1164       O  0.19265305  0.05562317  0.88269460    -0.93200
O1165       O  0.17024019  0.02549837  0.91016128    -0.92000
C1166       C  0.25069021  0.00542146  0.90329682     1.17100
H1167       H  0.19936516  0.04104626  0.82273637     0.33000
H1168       H  0.16593427  0.97254435  0.89362030     0.43900
H1169       H  0.26021797  0.96021604  0.84790536     0.37400
H1170       H  0.17334123  0.94228977  0.79621871     0.33900
H1171       H  0.11976418  0.01641462  0.86129392     0.25700
H1172       H  0.13823746  0.91791880  0.80710899     0.31600
H1173       H  0.19506856  0.89472571  0.80342421     0.37500
H1174       H  0.19587166  0.06654052  0.86808159     0.32000
H1175       H  0.27119095  0.05123195  0.83251660     0.30800
H1176       H  0.28841571  0.98807330  0.81926454     0.32500
H1177       H  0.26580274  0.92550297  0.78531279     0.31500
H1178       H  0.16797240  0.00879410  0.91779927     0.35500
H1179       H  0.19613060  0.96765017  0.92974663     0.28200
H1180       H  0.16052844  0.02175461  0.75431252     0.32500
H1181       H  0.20866911  0.94298135  0.76384338     0.35300
H1182       H  0.25350639  0.05359392  0.80917873     0.27900
H1183       H  0.21562597  0.94566208  0.93359681     0.40800
H1184       H  0.10860834  0.93557681  0.86801567     0.30800
H1185       H  0.12639631  0.00846781  0.88875360     0.38500
H1186       H  0.27523035  0.94470793  0.80501025     0.30300
H1187       H  0.15363813  0.90028006  0.82516150     0.30400
H1188       H  0.15518653  0.99328781  0.75008550     0.30600
Zr1189     Zr  0.19642349  0.05812808  0.62370178     2.17500
O1190       O  0.17650053  0.05350342  0.66445660    -0.51700
O1191       O  0.15201243  0.06007736  0.61328223    -0.74900
O1192       O  0.19150886  0.09815201  0.64353555    -0.81700
O1193       O  0.22954329  0.00038262  0.63135674    -0.83500
O1194       O  0.20206130  0.12738498  0.61508575    -0.79100
O1195       O  0.19958778  0.02252342  0.65151944    -0.90700
O1196       O  0.14698819  0.06953372  0.57227902    -0.76700
O1197       O  0.19596702  0.08931077  0.59230394    -0.86200
O1198       O  0.18826241  0.03480163  0.58655847    -0.85900
O1199       O  0.23772795  0.07606585  0.62647067    -0.72600
O1200       O  0.23139954  0.03204944  0.61547220    -0.84700
Zr1201     Zr  0.26238212  0.05806028  0.54868681     2.26400
Zr1202     Zr  0.23687017  0.10717199  0.59385597     2.06300
Zr1203     Zr  0.22376236  0.00654099  0.58144031     2.10000
Zr1204     Zr  0.18827796  0.06720295  0.55503124     1.78800
O1205       O  0.24756532  0.96752622  0.57840580    -0.93600
O1206       O  0.16945763  0.10855015  0.54896521    -0.41400
O1207       O  0.22254415  0.03894236  0.55112554    -0.78000
O1208       O  0.22819587  0.08763924  0.55439505    -0.96700
O1209       O  0.27083245  0.07898071  0.58693989    -0.90000
O1210       O  0.26443080  0.02511138  0.57950148    -0.92800
C1211       C  0.13845083  0.06568343  0.59417147     1.00900
C1212       C  0.21846758  0.00769306  0.65260663     1.13900
C1213       C  0.19013341  0.12030019  0.63455604     1.04600
O1214       O  0.23214309  0.15199349  0.58641085    -0.95000
O1215       O  0.26219003  0.12695489  0.56177724    -0.90700
O1216       O  0.27193456  0.09896638  0.53169926    -0.83900
C1217       C  0.27055043  0.12135882  0.53996277     1.11300
O1218       O  0.27868775  0.03044524  0.66047715    -0.97000
Zr1219     Zr  0.27245582  0.04697396  0.61828910     1.88900
O1220       O  0.30315518  0.04448133  0.56414830    -0.73600
O1221       O  0.26383226  0.12008534  0.62817728    -0.52900
O1222       O  0.28936057  0.07383271  0.65078188    -0.97500
O1223       O  0.29008347  0.00447268  0.61820019    -0.54800
O1224       O  0.31224722  0.05873555  0.60155238    -0.74100
C1225       C  0.31619657  0.05833453  0.57817774     0.98200
O1226       O  0.28747545  0.05262468  0.51105790    -0.62900
O1227       O  0.18875853  0.97775830  0.58285608    -0.57700
O1228       O  0.24742232  0.03337274  0.51412594    -0.94400
O1229       O  0.22404315  0.00256873  0.53163485    -0.92900
O1230       O  0.16670545  0.03602838  0.53026422    -0.93200
O1231       O  0.18661558  0.07563545  0.51026877    -0.92000
C1232       C  0.23338734  0.01432292  0.51171237     1.17100
H1233       H  0.17267939  0.02580722  0.58713743     0.33000
H1234       H  0.22709764  0.09990696  0.54113507     0.43900
H1235       H  0.27644448  0.01209540  0.57539321     0.37400
H1236       H  0.23969227  0.08342814  0.64278635     0.33900
H1237       H  0.18388174  0.11958045  0.54583738     0.25700
H1238       H  0.28020855  0.12349626  0.62039004     0.31600
H1239       H  0.30632097  0.07847233  0.64505429     0.37500
H1240       H  0.17338525  0.01977449  0.53648067     0.32000
H1241       H  0.19648556  0.96096537  0.58081009     0.30800
H1242       H  0.25037440  0.96228077  0.59598248     0.32500
H1243       H  0.28019546  0.99455195  0.63024557     0.31500
H1244       H  0.20220231  0.08474218  0.50647204     0.35500
H1245       H  0.30207218  0.06358470  0.51336152     0.28200
H1246       H  0.16105063  0.06392987  0.66351726     0.32500
H1247       H  0.29700862  0.02785796  0.66264011     0.35300
H1248       H  0.18317234  0.97810741  0.60048398     0.27900
H1249       H  0.29457749  0.03544866  0.51224746     0.40800
H1250       H  0.24584800  0.15987305  0.59595049     0.30800
H1251       H  0.16021463  0.10794782  0.53291357     0.38500
H1252       H  0.30705390  0.00561080  0.62563161     0.30300
H1253       H  0.25727491  0.13666965  0.63330039     0.30400
H1254       H  0.18742103  0.06233457  0.67643749     0.30600
Zr1255     Zr  0.28714539  0.05396621  0.37549569     2.17500
O1256       O  0.27683216  0.07387127  0.41520199    -0.51700
O1257       O  0.27371857  0.09586393  0.36331622    -0.74900
O1258       O  0.32410158  0.07153831  0.39455776    -0.81700
O1259       O  0.23164576  0.01252515  0.38033497    -0.83500
O1260       O  0.35781084  0.06414073  0.36970927    -0.79100
O1261       O  0.25520832  0.03867388  0.40400033    -0.90700
O1262       O  0.28088624  0.10218005  0.32208813    -0.76700
O1263       O  0.31789187  0.06173844  0.34465463    -0.86200
O1264       O  0.26319222  0.05571067  0.33742739    -0.85900
O1265       O  0.31735652  0.01995168  0.37886389    -0.72600
O1266       O  0.26979173  0.01418097  0.36859860    -0.84700
Zr1267     Zr  0.30404172  0.98777501  0.30327890     2.26400
Zr1268     Zr  0.34666317  0.02693906  0.34583180     2.06300
Zr1269     Zr  0.24461534  0.01519816  0.33230441     2.10000
Zr1270     Zr  0.29565070  0.06269356  0.30668376     1.78800
O1271       O  0.21738932  0.97998437  0.32397918    -0.93600
O1272       O  0.33682427  0.08214814  0.30505924    -0.41400
O1273       O  0.27704959  0.02292248  0.30394717    -0.78000
O1274       O  0.32494452  0.02777563  0.30630784    -0.96700
O1275       O  0.32773129  0.98719320  0.34116630    -0.90000
O1276       O  0.27303647  0.97986126  0.33469127    -0.92800
C1277       C  0.27349105  0.10944347  0.34346976     1.00900
C1278       C  0.23773541  0.02250073  0.40228994     1.13900
C1279       C  0.34656562  0.07579813  0.38748557     1.04600
O1280       O  0.38277010  0.04621673  0.32606964    -0.95000
O1281       O  0.37110655  0.99738183  0.32097906    -0.90700
O1282       O  0.34676970  0.98408434  0.28907600    -0.83900
C1283       C  0.36800143  0.98614758  0.30000076     1.11300
O1284       O  0.32610642  0.95993742  0.40289063    -0.97000
Zr1285     Zr  0.29780253  0.97987221  0.37275623     1.88900
O1286       O  0.30122166  0.94510589  0.31788694    -0.73600
O1287       O  0.37248879  0.00844920  0.37898559    -0.52900
O1288       O  0.29197606  0.98334495  0.41767913    -0.97500
O1289       O  0.26372029  0.95063882  0.37901319    -0.54800
O1290       O  0.32087609  0.94561593  0.35469815    -0.74100
C1291       C  0.31653071  0.93554190  0.33365338     0.98200
O1292       O  0.30761298  0.95759057  0.26929034    -0.62900
O1293       O  0.20485359  0.03806112  0.33091314    -0.57700
O1294       O  0.27630520  0.99480379  0.26718251    -0.94400
O1295       O  0.24527807  0.01977488  0.28224539    -0.92900
O1296       O  0.26571155  0.06817196  0.27253595    -0.93200
O1297       O  0.30300075  0.08137360  0.26564040    -0.92000
C1298       C  0.25837896  0.01052209  0.26305846     1.17100
H1299       H  0.24970835  0.06791458  0.33711037     0.33000
H1300       H  0.33692859  0.03007229  0.29301702     0.43900
H1301       H  0.26388863  0.96458909  0.33230364     0.37400
H1302       H  0.32573172  0.02033621  0.39489003     0.33900
H1303       H  0.34473032  0.07648257  0.28932493     0.25700
H1304       H  0.38384273  0.99651769  0.37038708     0.31600
H1305       H  0.29170814  0.00152507  0.42104939     0.37500
H1306       H  0.25105483  0.07667364  0.28018151     0.32000
H1307       H  0.20188100  0.04135401  0.31291283     0.30800
H1308       H  0.21802329  0.97796440  0.30560940     0.32500
H1309       H  0.25263118  0.95870008  0.39146453     0.31500
H1310       H  0.30238879  0.09968827  0.26832412     0.35500
H1311       H  0.29097477  0.94972563  0.26767958     0.28200
H1312       H  0.28210518  0.09147593  0.41342079     0.32500
H1313       H  0.34092200  0.97090338  0.40340083     0.35300
H1314       H  0.19216679  0.02549791  0.33551793     0.27900
H1315       H  0.30987613  0.96712575  0.25359160     0.40800
H1316       H  0.39476720  0.04922282  0.33985906     0.30800
H1317       H  0.33344394  0.10024162  0.30255831     0.38500
H1318       H  0.27158194  0.93633216  0.38804776     0.30300
H1319       H  0.38356625  0.02206169  0.38452765     0.30400
H1320       H  0.28861970  0.06649655  0.42765764     0.30600
Zr1321     Zr  0.01808635  0.01395519  0.67712996     2.17500
O1322       O  0.03630808  0.05527974  0.68317321    -0.51700
O1323       O  0.04062122  0.01348311  0.71706823    -0.74900
O1324       O  0.98895554  0.04220599  0.69308613    -0.81700
O1325       O  0.04351646  0.00975051  0.60959338    -0.83500
O1326       O  0.98154163  0.01944462  0.72810980    -0.79100
O1327       O  0.03900561  0.03507306  0.64292338    -0.90700
O1328       O  0.07151424  0.98525078  0.71120888    -0.76700
O1329       O  0.02030872  0.98044798  0.70336709    -0.86200
O1330       O  0.04720327  0.98523801  0.65954362    -0.85900
O1331       O  0.97513678  0.00006592  0.68373376    -0.72600
O1332       O  0.99820159  0.00217326  0.63898659    -0.84700
Zr1333     Zr  0.98909999  0.92355283  0.66077087     2.26400
Zr1334     Zr  0.98087349  0.96951813  0.71609537     2.06300
Zr1335     Zr  0.02632846  0.97095803  0.62304168     2.10000
Zr1336     Zr  0.05009118  0.95261203  0.68941186     1.78800
O1337       O  0.01399949  0.97985152  0.58003497    -0.93600
O1338       O  0.06757610  0.93415924  0.72760986    -0.41400
O1339       O  0.03111686  0.93702777  0.65228401    -0.78000
O1340       O  0.00925485  0.93859474  0.69839449    -0.96700
O1341       O  0.96074305  0.95373734  0.67865007    -0.90000
O1342       O  0.98548742  0.95505318  0.62965710    -0.92800
C1343       C  0.06055938  0.00193961  0.72426153     1.00900
C1344       C  0.04664313  0.03050877  0.62068366     1.13900
C1345       C  0.98324910  0.04159551  0.71596410     1.04600
O1346       O  0.99008371  0.97026518  0.76068162    -0.95000
O1347       O  0.97571885  0.92148886  0.72956755    -0.90700
O1348       O  0.98261610  0.89604436  0.69603278    -0.83900
C1349       C  0.97808697  0.89883853  0.71930319     1.11300
O1350       O  0.93600721  0.02555107  0.64861501    -0.97000
Zr1351     Zr  0.95727880  0.98501433  0.64638001     1.88900
O1352       O  0.94985680  0.91743543  0.63765861    -0.73600
O1353       O  0.93672906  0.97074503  0.72771286    -0.52900
O1354       O  0.91449531  0.98170922  0.66189591    -0.97500
O1355       O  0.95264224  0.00479467  0.60544921    -0.54800
O1356       O  0.93568679  0.95451420  0.62216416    -0.74100
C1357       C  0.93578006  0.93071098  0.62298604     0.98200
O1358       O  0.98630033  0.87796833  0.66347289    -0.62900
O1359       O  0.06986322  0.96163823  0.61249490    -0.57700
O1360       O  0.00916946  0.90475537  0.62443066    -0.94400
O1361       O  0.02498001  0.93426790  0.59838360    -0.92900
O1362       O  0.08859966  0.95032471  0.66516294    -0.93200
O1363       O  0.06011047  0.90809577  0.69274883    -0.92000
C1364       C  0.01928370  0.91186906  0.60387739     1.17100
H1365       H  0.06326565  0.99268138  0.65615543     0.33000
H1366       H  0.01388767  0.92564700  0.71013348     0.43900
H1367       H  0.98002537  0.94847301  0.61386968     0.37400
H1368       H  0.96168751  0.01110718  0.68884945     0.33900
H1369       H  0.08295595  0.94356984  0.73150858     0.25700
H1370       H  0.92864010  0.98173803  0.71500737     0.31600
H1371       H  0.91274305  0.96404703  0.66719140     0.37500
H1372       H  0.10115232  0.95909250  0.67545382     0.32000
H1373       H  0.07206880  0.94352779  0.61591240     0.30800
H1374       H  0.00277759  0.99468822  0.58108678     0.32500
H1375       H  0.95945395  0.99232053  0.59361503     0.31500
H1376       H  0.04601339  0.89957648  0.68440698     0.35500
H1377       H  0.97201591  0.87333138  0.65266393     0.28200
H1378       H  0.03517440  0.05886779  0.70126574     0.32500
H1379       H  0.94956083  0.03793205  0.64697050     0.35300
H1380       H  0.07050486  0.96310859  0.59405517     0.27900
H1381       H  0.00136781  0.87085435  0.65521856     0.40800
H1382       H  0.99617060  0.95313535  0.76470798     0.30800
H1383       H  0.05553828  0.93859564  0.74093947     0.38500
H1384       H  0.96499683  0.01844927  0.60518034     0.30300
H1385       H  0.93055953  0.95380835  0.72387731     0.30400
H1386       H  0.02461657  0.06753442  0.67523355     0.30600
Zr1387     Zr  0.92212904  0.66885458  0.73656770     2.17500
O1388       O  0.92704248  0.63402466  0.70754919    -0.51700
O1389       O  0.90875863  0.64443926  0.77271451    -0.74900
O1390       O  0.95828187  0.64374458  0.74354490    -0.81700
O1391       O  0.85638577  0.67628324  0.70821330    -0.83500
O1392       O  0.99022975  0.67138796  0.74776270    -0.79100
O1393       O  0.88676199  0.64820638  0.71888756    -0.90700
O1394       O  0.89781828  0.67210563  0.80272959    -0.76700
O1395       O  0.94197549  0.69236834  0.76876822    -0.86200
O1396       O  0.88808340  0.69059911  0.75514028    -0.85900
O1397       O  0.95433754  0.69349005  0.71692993    -0.72600
O1398       O  0.90452960  0.69347816  0.70336638    -0.84700
Zr1399     Zr  0.91757075  0.76565141  0.73559925     2.26400
Zr1400     Zr  0.97283089  0.71892612  0.74901587     2.06300
Zr1401     Zr  0.87063185  0.71625351  0.72275362     2.10000
Zr1402     Zr  0.90733622  0.71392182  0.78739914     1.78800
O1403       O  0.83653598  0.71501195  0.69221972    -0.93600
O1404       O  0.93322029  0.70710577  0.82453761    -0.41400
O1405       O  0.88722217  0.74033227  0.75623949    -0.78000
O1406       O  0.93765576  0.74035040  0.76820183    -0.96700
O1407       O  0.95277566  0.74390760  0.71747354    -0.90000
O1408       O  0.90191645  0.74045133  0.70256318    -0.92800
C1409       C  0.89948152  0.64974510  0.79416738     1.00900
C1410       C  0.86557406  0.65416235  0.70913610     1.13900
C1411       C  0.98152427  0.64808997  0.74563569     1.04600
O1412       O  0.99405165  0.72196397  0.78919839    -0.95000
O1413       O  0.98129849  0.76867332  0.74447481    -0.90700
O1414       O  0.94709565  0.78732889  0.76000769    -0.83900
C1415       C  0.96858821  0.78953567  0.75051541     1.11300
O1416       O  0.94497469  0.68507488  0.65624848    -0.97000
Zr1417     Zr  0.93623124  0.71914374  0.68502640     1.88900
O1418       O  0.94104715  0.78767525  0.70373738    -0.73600
O1419       O  0.01431853  0.72169747  0.73030586    -0.52900
O1420       O  0.97914533  0.71917996  0.66944485    -0.97500
O1421       O  0.91079085  0.72177265  0.64713744    -0.54800
O1422       O  0.94360658  0.76146293  0.67056075    -0.74100
C1423       C  0.94768722  0.78235466  0.68140065     0.98200
O1424       O  0.89925340  0.80065968  0.75878644    -0.62900
O1425       O  0.83580606  0.71452239  0.75216188    -0.57700
O1426       O  0.88475080  0.78493654  0.70987011    -0.94400
O1427       O  0.85296521  0.75763447  0.71335303    -0.92900
O1428       O  0.86616393  0.71840024  0.80660495    -0.93200
O1429       O  0.90411166  0.74938094  0.81565033    -0.92000
C1430       C  0.86327869  0.77667214  0.70320296     1.17100
H1431       H  0.87549902  0.67932620  0.76126223     0.33000
H1432       H  0.94426170  0.75013161  0.78174898     0.43900
H1433       H  0.89580625  0.74908681  0.68794395     0.37400
H1434       H  0.96674989  0.68280855  0.70914049     0.33900
H1435       H  0.94426405  0.69269978  0.82038991     0.25700
H1436       H  0.02616416  0.71969931  0.74448718     0.31600
H1437       H  0.98750171  0.73272873  0.67870866     0.37500
H1438       H  0.85788268  0.73242889  0.79750000     0.32000
H1439       H  0.82062386  0.71460845  0.74144356     0.30800
H1440       H  0.84370839  0.70759192  0.67685405     0.32500
H1441       H  0.90706733  0.73979200  0.64455548     0.31500
H1442       H  0.90576423  0.76430578  0.80480119     0.35500
H1443       H  0.88528989  0.80779402  0.74870058     0.28200
H1444       H  0.92950698  0.61861871  0.71769047     0.32500
H1445       H  0.93879843  0.66997375  0.66491432     0.35300
H1446       H  0.83633104  0.69749833  0.75948721     0.27900
H1447       H  0.89089997  0.79284339  0.77328788     0.40800
H1448       H  0.00547203  0.73628194  0.78717926     0.30800
H1449       H  0.94465260  0.72153477  0.82503441     0.38500
H1450       H  0.89454219  0.71450432  0.65205915     0.30300
H1451       H  0.01634895  0.70613031  0.72056288     0.30400
H1452       H  0.94311914  0.63665218  0.69877486     0.30600
Zr1453     Zr  0.02063654  0.41653280  0.81210055     2.17500
O1454       O  0.03147437  0.37190854  0.81287776    -0.51700
O1455       O  0.06373006  0.40637730  0.82661881    -0.74900
O1456       O  0.01428690  0.39341445  0.77377197    -0.81700
O1457       O  0.99332106  0.42082079  0.87863789    -0.83500
O1458       O  0.00750858  0.42063131  0.74141574    -0.79100
O1459       O  0.99955456  0.39417299  0.84629528    -0.90700
O1460       O  0.08482507  0.44238706  0.83273076    -0.76700
O1461       O  0.04088554  0.44713867  0.78602351    -0.86200
O1462       O  0.03668821  0.44518519  0.84163487    -0.85900
O1463       O  0.98919596  0.43574606  0.78477834    -0.72600
O1464       O  0.98540500  0.43325528  0.83446591    -0.84700
Zr1465     Zr  0.99120876  0.51040123  0.81363789     2.26400
Zr1466     Zr  0.00932509  0.46725023  0.75897037     2.06300
Zr1467     Zr  0.00249476  0.46255286  0.86362778     2.10000
Zr1468     Zr  0.05756295  0.47531307  0.81636236     1.78800
O1469       O  0.98967399  0.45652025  0.90689973    -0.93600
O1470       O  0.08994595  0.47097112  0.78458473    -0.41400
O1471       O  0.02365123  0.49377888  0.84004390    -0.78000
O1472       O  0.02651309  0.49459159  0.79009959    -0.96700
O1473       O  0.97457768  0.48273773  0.78275463    -0.90000
O1474       O  0.97037757  0.47900717  0.83747785    -0.92800
C1475       C  0.08230923  0.41872110  0.83552535     1.00900
C1476       C  0.99261676  0.39905254  0.86883179     1.13900
C1477       C  0.00903777  0.39746638  0.75077165     1.04600
O1478       O  0.04330711  0.47038281  0.72890137    -0.95000
O1479       O  0.00774322  0.51720589  0.74821347    -0.90700
O1480       O  0.99696692  0.54044121  0.78221528    -0.83900
C1481       C  0.00347895  0.53934434  0.75946106     1.11300
O1482       O  0.93642123  0.41024373  0.80270540    -0.97000
Zr1483     Zr  0.95440815  0.45156250  0.80740945     1.88900
O1484       O  0.95110102  0.51968727  0.79398634    -0.73600
O1485       O  0.98079904  0.46811314  0.72328328    -0.52900
O1486       O  0.92988368  0.44963674  0.76900702    -0.97500
O1487       O  0.92244730  0.44017773  0.83782283    -0.54800
O1488       O  0.93058742  0.48983730  0.81333569    -0.74100
C1489       C  0.93113385  0.50722218  0.79712080     0.98200
O1490       O  0.00856784  0.55075003  0.82490948    -0.62900
O1491       O  0.04081767  0.46979178  0.88739310    -0.57700
O1492       O  0.97055024  0.52556943  0.85051586    -0.94400
O1493       O  0.98123165  0.49887007  0.88186282    -0.92900
O1494       O  0.07707763  0.49625559  0.85160084    -0.93200
O1495       O  0.07918581  0.51424844  0.80763498    -0.92000
C1496       C  0.96887129  0.51783176  0.87311956     1.17100
H1497       H  0.04612266  0.43735875  0.85496322     0.33000
H1498       H  0.03525109  0.50816754  0.78221895     0.43900
H1499       H  0.95602395  0.48328254  0.84752170     0.37400
H1500       H  0.98025955  0.42369934  0.77507467     0.33900
H1501       H  0.09217824  0.45272509  0.78227749     0.25700
H1502       H  0.96384825  0.46687168  0.73064320     0.31600
H1503       H  0.93921088  0.43795304  0.75805665     0.37500
H1504       H  0.08959583  0.48413951  0.85834644     0.32000
H1505       H  0.03615590  0.48294521  0.89952148     0.30800
H1506       H  0.97112472  0.45564516  0.90634337     0.32500
H1507       H  0.91818714  0.45581959  0.84674477     0.31500
H1508       H  0.06663637  0.52759702  0.81111132     0.35500
H1509       H  0.99397950  0.56215216  0.82717308     0.28200
H1510       H  0.04360361  0.36866332  0.79924815     0.32500
H1511       H  0.94560070  0.39963887  0.81501236     0.35300
H1512       H  0.04327065  0.45450659  0.89770386     0.27900
H1513       H  0.01562169  0.54828416  0.84189980     0.40800
H1514       H  0.03728701  0.48310538  0.71667624     0.30800
H1515       H  0.08180851  0.47689864  0.76893249     0.38500
H1516       H  0.93152966  0.42985485  0.85043318     0.30300
H1517       H  0.98153390  0.48543008  0.71672958     0.30400
H1518       H  0.01617505  0.36263789  0.80838990     0.30600
Zr1519     Zr  0.06326556  0.26158989  0.75731433     2.17500
O1520       O  0.07910832  0.30135656  0.74175630    -0.51700
O1521       O  0.04117826  0.27588058  0.79344905    -0.74900
O1522       O  0.03423818  0.29175223  0.74243072    -0.81700
O1523       O  0.12188988  0.24543133  0.79353983    -0.83500
O1524       O  0.00387189  0.26866928  0.72345390    -0.79100
O1525       O  0.09570565  0.27787774  0.78404608    -0.90700
O1526       O  0.03155594  0.23929685  0.81264912    -0.76700
O1527       O  0.02793546  0.23487645  0.76412095    -0.86200
O1528       O  0.07757600  0.22988252  0.78549399    -0.85900
O1529       O  0.04989993  0.24632547  0.71742251    -0.72600
O1530       O  0.09822051  0.24383715  0.73605475    -0.84700
Zr1531     Zr  0.06790547  0.16804969  0.73042346     2.26400
Zr1532     Zr  0.01471912  0.21909201  0.72442177     2.06300
Zr1533     Zr  0.11262935  0.21162497  0.76431023     2.10000
Zr1534     Zr  0.04395763  0.20253749  0.79074076     1.78800
O1535       O  0.14640881  0.22091603  0.73524864    -0.93600
O1536       O  0.00097012  0.19361457  0.80313262    -0.41400
O1537       O  0.07898763  0.18308460  0.77090160    -0.78000
O1538       O  0.03245149  0.18705917  0.75151348    -0.96700
O1539       O  0.04999000  0.19919165  0.70291803    -0.90000
O1540       O  0.10165178  0.19589503  0.72429524    -0.92800
C1541       C  0.03183658  0.26314510  0.81121159     1.00900
C1542       C  0.11323217  0.26768237  0.79712887     1.13900
C1543       C  0.01377175  0.29054596  0.73038569     1.04600
O1544       O  0.97218957  0.22194124  0.74077827    -0.95000
O1545       O  0.99736444  0.17224287  0.72171850    -0.90700
O1546       O  0.03047249  0.14481358  0.72337711    -0.83900
C1547       C  0.00689281  0.14898303  0.72258596     1.11300
O1548       O  0.08356912  0.26740654  0.67506994    -0.97000
Zr1549     Zr  0.08430867  0.22707253  0.69665660     1.88900
O1550       O  0.09329046  0.15843613  0.69358557    -0.73600
O1551       O  0.99744984  0.22218332  0.68233998    -0.52900
O1552       O  0.06033013  0.22709783  0.65777771    -0.97500
O1553       O  0.12641948  0.24078251  0.68580868    -0.54800
O1554       O  0.10402829  0.19411991  0.67352368    -0.74100
C1555       C  0.10552790  0.17054886  0.67689319     0.98200
O1556       O  0.06540777  0.12296411  0.72318781    -0.62900
O1557       O  0.15182532  0.20389266  0.78682992    -0.57700
O1558       O  0.09411191  0.14351185  0.75917377    -0.94400
O1559       O  0.12288970  0.16849137  0.77720601    -0.92900
O1560       O  0.06528620  0.19700832  0.83074465    -0.93200
O1561       O  0.03770197  0.16064731  0.80747528    -0.92000
C1562       C  0.11326688  0.14692473  0.77326014     1.17100
H1563       H  0.08057057  0.23562812  0.80226382     0.33000
H1564       H  0.02061325  0.17497049  0.75736237     0.43900
H1565       H  0.11681848  0.18791452  0.71839585     0.37400
H1566       H  0.04497454  0.25999254  0.70659431     0.33900
H1567       H  0.99599413  0.20720726  0.81464807     0.25700
H1568       H  0.98457153  0.20902794  0.68172458     0.31600
H1569       H  0.06789397  0.21375254  0.64740598     0.37500
H1570       H  0.08210842  0.19031182  0.82635802     0.32000
H1571       H  0.16246679  0.21852769  0.78335413     0.30800
H1572       H  0.15118528  0.23828951  0.73915635     0.32500
H1573       H  0.12824232  0.25752158  0.69335514     0.31500
H1574       H  0.04472601  0.14933867  0.79460352     0.35500
H1575       H  0.08239556  0.11755874  0.71785043     0.28200
H1576       H  0.07759136  0.31320711  0.75585081     0.32500
H1577       H  0.08580713  0.27992278  0.68842105     0.35300
H1578       H  0.14755997  0.20516142  0.80477963     0.27900
H1579       H  0.06316888  0.11484414  0.73972941     0.40800
H1580       H  0.96845877  0.20489300  0.74689834     0.30800
H1581       H  0.99080695  0.19675708  0.78789988     0.38500
H1582       H  0.12608956  0.24381381  0.66753530     0.30300
H1583       H  0.98770755  0.23808089  0.68225399     0.30400
H1584       H  0.09739219  0.29869787  0.73957054     0.30600
Zr1585     Zr  0.43135866  0.75066189  0.27064933     2.17500
O1586       O  0.40649681  0.71620525  0.25497225    -0.51700
O1587       O  0.45731579  0.73193536  0.30201932    -0.74900
O1588       O  0.45906212  0.72104465  0.25383716    -0.81700
O1589       O  0.37129174  0.76445065  0.30438097    -0.83500
O1590       O  0.49331973  0.74466707  0.24445324    -0.79100
O1591       O  0.40148020  0.73428076  0.30103819    -0.90700
O1592       O  0.46697717  0.76407399  0.32789798    -0.76700
O1593       O  0.46771375  0.77496186  0.28036706    -0.86200
O1594       O  0.41893400  0.78012373  0.30104766    -0.85900
O1595       O  0.44724284  0.76906762  0.23251764    -0.72600
O1596       O  0.39826973  0.77154762  0.24904795    -0.84700
Zr1597     Zr  0.43130600  0.84575145  0.25298429     2.26400
Zr1598     Zr  0.48299931  0.79458264  0.24327064     2.06300
Zr1599     Zr  0.38493521  0.80035947  0.28016409     2.10000
Zr1600     Zr  0.45390874  0.80425739  0.31039322     1.78800
O1601       O  0.34684130  0.78903203  0.25799407    -0.93600
O1602       O  0.49835496  0.80832817  0.32074763    -0.41400
O1603       O  0.41924192  0.82667826  0.29160021    -0.78000
O1604       O  0.46644829  0.82422169  0.27307530    -0.96700
O1605       O  0.44894852  0.81753269  0.22277666    -0.90000
O1606       O  0.39695418  0.82005903  0.24204518    -0.92800
C1607       C  0.46775771  0.74102165  0.32129094     1.00900
C1608       C  0.38171313  0.74374639  0.31116973     1.13900
C1609       C  0.48190361  0.72255600  0.24759215     1.04600
O1610       O  0.52671953  0.79064098  0.25614879    -0.95000
O1611       O  0.50078125  0.84195757  0.24265133    -0.90700
O1612       O  0.46870262  0.86946538  0.24988601    -0.83900
C1613       C  0.49191980  0.86531367  0.24625578     1.11300
O1614       O  0.41054030  0.75276128  0.18904093    -0.97000
Zr1615     Zr  0.41413652  0.79182357  0.21206068     1.88900
O1616       O  0.40973022  0.86116499  0.21554426    -0.73600
O1617       O  0.49890899  0.79233359  0.20073127    -0.52900
O1618       O  0.43913127  0.79532499  0.17422275    -0.97500
O1619       O  0.37304599  0.78014256  0.19617020    -0.54800
O1620       O  0.39773204  0.82892276  0.19134537    -0.74100
C1621       C  0.39842976  0.85222059  0.19646872     0.98200
O1622       O  0.43476138  0.89119184  0.24946948    -0.62900
O1623       O  0.35926259  0.81387091  0.31537326    -0.57700
O1624       O  0.40281070  0.86622168  0.28234147    -0.94400
O1625       O  0.36862948  0.84202269  0.28213619    -0.92900
O1626       O  0.43663197  0.80470163  0.35250043    -0.93200
O1627       O  0.45654633  0.84411835  0.33203727    -0.92000
C1628       C  0.37973545  0.86226912  0.28753987     1.17100
H1629       H  0.41500712  0.77347936  0.31723524     0.33000
H1630       H  0.47878666  0.83549403  0.27944125     0.43900
H1631       H  0.38244423  0.82922682  0.23593435     0.37400
H1632       H  0.45268285  0.75614975  0.22119080     0.33900
H1633       H  0.50686157  0.79493007  0.31114098     0.25700
H1634       H  0.48676289  0.78175820  0.19177481     0.31600
H1635       H  0.42668837  0.79684061  0.16050611     0.37500
H1636       H  0.43485217  0.78692101  0.35729329     0.32000
H1637       H  0.34415749  0.80330360  0.31504901     0.30800
H1638       H  0.33567082  0.80387383  0.25956186     0.32500
H1639       H  0.37261542  0.78625889  0.17866324     0.31500
H1640       H  0.47170721  0.85233331  0.32547146     0.35500
H1641       H  0.41789313  0.89736788  0.24452384     0.28200
H1642       H  0.41555016  0.70074853  0.26020408     0.32500
H1643       H  0.42790955  0.74654577  0.18648773     0.35300
H1644       H  0.36871840  0.80835427  0.33042979     0.27900
H1645       H  0.43710112  0.89764460  0.26659282     0.40800
H1646       H  0.52691337  0.77691564  0.26865430     0.30800
H1647       H  0.50404893  0.82400503  0.31282025     0.38500
H1648       H  0.36104107  0.79117896  0.20507262     0.30300
H1649       H  0.49609209  0.80934227  0.19377599     0.30400
H1650       H  0.40834587  0.71704053  0.23659004     0.30600
Zr1651     Zr  0.49629589  0.59041677  0.33392514     2.17500
O1652       O  0.49468586  0.63620372  0.33462823    -0.51700
O1653       O  0.45875807  0.60334769  0.35686671    -0.74900
O1654       O  0.49469456  0.61743133  0.29737094    -0.81700
O1655       O  0.52807216  0.57668782  0.39750337    -0.83500
O1656       O  0.48876165  0.59302719  0.26312522    -0.79100
O1657       O  0.52430851  0.60575745  0.36662592    -0.90700
O1658       O  0.43531278  0.56924256  0.36508606    -0.76700
O1659       O  0.46622219  0.56421680  0.31352327    -0.86200
O1660       O  0.48551932  0.56045527  0.36500652    -0.85900
O1661       O  0.51741631  0.57202737  0.29823455    -0.72600
O1662       O  0.53478307  0.56993577  0.34628487    -0.84700
Zr1663     Zr  0.51494479  0.49566999  0.32009145     2.26400
Zr1664     Zr  0.48733695  0.54511696  0.27793784     2.06300
Zr1665     Zr  0.52285391  0.53803392  0.37542519     2.10000
Zr1666     Zr  0.45599306  0.53424938  0.34544338     1.78800
O1667       O  0.56174821  0.54169486  0.39900654    -0.93600
O1668       O  0.41569178  0.53735563  0.32398249    -0.41400
O1669       O  0.49329684  0.51064613  0.35634823    -0.78000
O1670       O  0.47499741  0.51597644  0.30967395    -0.96700
O1671       O  0.52368974  0.52835616  0.29434583    -0.90000
O1672       O  0.54511127  0.52060717  0.34077306    -0.92800
C1673       C  0.44031847  0.59240728  0.36746060     1.00900
C1674       C  0.53072461  0.59878766  0.38882536     1.13900
C1675       C  0.49245146  0.61527893  0.27365523     1.04600
O1676       O  0.44402754  0.54826271  0.26348581    -0.95000
O1677       O  0.48585416  0.49579224  0.26454635    -0.90700
O1678       O  0.48479813  0.47196717  0.29952555    -0.83900
C1679       C  0.48368702  0.47336695  0.27595361     1.11300
O1680       O  0.57385865  0.59313816  0.31359201    -0.97000
Zr1681     Zr  0.55519676  0.55182377  0.31125211     1.88900
O1682       O  0.54219986  0.49332929  0.28327970    -0.73600
O1683       O  0.49935380  0.54337192  0.23411221    -0.52900
O1684       O  0.57501355  0.56736819  0.27332748    -0.97500
O1685       O  0.59265092  0.54546080  0.33690510    -0.54800
O1686       O  0.57558196  0.51582179  0.29365996    -0.74100
C1687       C  0.56389357  0.50208460  0.27840499     0.98200
O1688       O  0.52220795  0.45110317  0.31214637    -0.62900
O1689       O  0.49934177  0.52795454  0.41304276    -0.57700
O1690       O  0.53384769  0.47219046  0.35440625    -0.94400
O1691       O  0.53938277  0.49785317  0.38734338    -0.92900
O1692       O  0.44702665  0.51991184  0.38777817    -0.93200
O1693       O  0.43228129  0.49579630  0.34905743    -0.92000
C1694       C  0.54213445  0.47685818  0.37635823     1.17100
H1695       H  0.47961247  0.56779300  0.38036529     0.33000
H1696       H  0.46126608  0.50651271  0.30299746     0.43900
H1697       H  0.56006304  0.51131813  0.34549752     0.37400
H1698       H  0.52431515  0.58410884  0.28694430     0.33900
H1699       H  0.41430254  0.55502939  0.31848114     0.25700
H1700       H  0.50804166  0.52702507  0.23222833     0.31600
H1701       H  0.56213381  0.57792323  0.26485451     0.37500
H1702       H  0.43098161  0.52820616  0.39235113     0.32000
H1703       H  0.51226553  0.52239082  0.42527036     0.30800
H1704       H  0.57486072  0.54380963  0.38614802     0.32500
H1705       H  0.59391816  0.56066707  0.34725007     0.31500
H1706       H  0.44411033  0.48247624  0.34365015     0.35500
H1707       H  0.54051650  0.44812713  0.31378572     0.28200
H1708       H  0.47687431  0.64121564  0.33242002     0.32500
H1709       H  0.57160140  0.59858584  0.33109828     0.35300
H1710       H  0.49332538  0.54427681  0.41946527     0.27900
H1711       H  0.51450016  0.44162282  0.32604542     0.40800
H1712       H  0.44106205  0.56637865  0.26068004     0.30800
H1713       H  0.41809122  0.52785997  0.30832794     0.38500
H1714       H  0.60677615  0.54663296  0.32499968     0.30300
H1715       H  0.48329560  0.54138321  0.22502819     0.30400
H1716       H  0.49863664  0.64134456  0.35191284     0.30600
Zr1717     Zr  0.56787423  0.34287079  0.24823413     2.17500
O1718       O  0.57267084  0.38831645  0.24544403    -0.51700
O1719       O  0.59342390  0.35734875  0.28307606    -0.74900
O1720       O  0.53152254  0.36779960  0.25634290    -0.81700
O1721       O  0.62674277  0.33734079  0.20996841    -0.83500
O1722       O  0.49974070  0.34216029  0.26711718    -0.79100
O1723       O  0.59195943  0.36123870  0.21489274    -0.90700
O1724       O  0.60780224  0.32367019  0.30473180    -0.76700
O1725       O  0.55413460  0.31544891  0.28097212    -0.86200
O1726       O  0.60279125  0.31570859  0.25467931    -0.85900
O1727       O  0.53021570  0.32291093  0.23295542    -0.72600
O1728       O  0.57478208  0.32384943  0.20847595    -0.84700
Zr1729     Zr  0.56329735  0.24829218  0.23176417     2.26400
Zr1730     Zr  0.51713529  0.29439183  0.26545307     2.06300
Zr1731     Zr  0.60983185  0.29616020  0.21545440     2.10000
Zr1732     Zr  0.58943322  0.28773167  0.28659581     1.78800
O1733       O  0.62565236  0.30435992  0.17361549    -0.93600
O1734       O  0.57300631  0.28846028  0.32904239    -0.41400
O1735       O  0.59955197  0.26743728  0.24804883    -0.78000
O1736       O  0.55341596  0.26713154  0.27150461    -0.96700
O1737       O  0.52677463  0.27459129  0.22658449    -0.90000
O1738       O  0.57358651  0.27628103  0.19900790    -0.92800
C1739       C  0.60711577  0.34706822  0.30008783     1.00900
C1740       C  0.61446756  0.35785637  0.20737679     1.13900
C1741       C  0.50870766  0.36497867  0.26229535     1.04600
O1742       O  0.50607170  0.29551954  0.30952212    -0.95000
O1743       O  0.50738830  0.24489144  0.26956435    -0.90700
O1744       O  0.53916592  0.22020189  0.25434422    -0.83900
C1745       C  0.51827176  0.22248831  0.26522428     1.11300
O1746       O  0.52554273  0.34404537  0.17911048    -0.97000
Zr1747     Zr  0.53804812  0.30274921  0.19441494     1.88900
O1748       O  0.53300617  0.23093179  0.20362687    -0.73600
O1749       O  0.47247601  0.29061520  0.25680000    -0.52900
O1750       O  0.49539657  0.31007299  0.17941814    -0.97500
O1751       O  0.55578908  0.30241474  0.15249270    -0.54800
O1752       O  0.51729766  0.26467370  0.18251423    -0.74100
C1753       C  0.51799873  0.24131422  0.18795720     0.98200
O1754       O  0.58790022  0.21132076  0.24376937    -0.62900
O1755       O  0.65244534  0.28896077  0.23072477    -0.57700
O1756       O  0.59219192  0.22901448  0.20272926    -0.94400
O1757       O  0.62253191  0.25734083  0.19609976    -0.92900
O1758       O  0.63340030  0.27606883  0.29233936    -0.93200
O1759       O  0.59596554  0.24922990  0.31044365    -0.92000
C1760       C  0.61241862  0.23607311  0.19220343     1.17100
H1761       H  0.61799752  0.32431050  0.25891138     0.33000
H1762       H  0.54983394  0.25474095  0.28411238     0.43900
H1763       H  0.57658097  0.26824208  0.18318407     0.37400
H1764       H  0.51718742  0.33456369  0.22799935     0.33900
H1765       H  0.57135781  0.30638182  0.33333451     0.25700
H1766       H  0.46554408  0.30781316  0.25811499     0.31600
H1767       H  0.48468902  0.30664783  0.19410276     0.37500
H1768       H  0.64279119  0.28879532  0.28281739     0.32000
H1769       H  0.66259884  0.28670783  0.21541656     0.30800
H1770       H  0.61048346  0.30470827  0.16288265     0.32500
H1771       H  0.54422522  0.31310123  0.14244109     0.31500
H1772       H  0.58872661  0.23590475  0.30003528     0.35500
H1773       H  0.58977998  0.21238744  0.26211308     0.28200
H1774       H  0.56666274  0.39566350  0.26132087     0.32500
H1775       H  0.54075368  0.35423899  0.18104159     0.35300
H1776       H  0.65772836  0.30529499  0.23740681     0.27900
H1777       H  0.57721099  0.19662612  0.24079727     0.40800
H1778       H  0.49451584  0.31009317  0.31095005     0.30800
H1779       H  0.55550180  0.28271579  0.32738852     0.38500
H1780       H  0.55287942  0.28528938  0.14629467     0.30300
H1781       H  0.47165951  0.28687913  0.23873893     0.30400
H1782       H  0.56094503  0.39465023  0.23241735     0.30600
Zr1783     Zr  0.48778257  0.00089576  0.18676444     2.17500
O1784       O  0.50535368  0.96101199  0.17282829    -0.51700
O1785       O  0.45426514  0.98707624  0.21452573    -0.74900
O1786       O  0.50247726  0.97155352  0.21563702    -0.81700
O1787       O  0.47456205  0.00697326  0.11991051    -0.83500
O1788       O  0.51808369  0.99614503  0.24663979    -0.79100
O1789       O  0.46271567  0.98428006  0.15321362    -0.90700
O1790       O  0.43566664  0.02298534  0.22784477    -0.76700
O1791       O  0.47787584  0.02876453  0.22000191    -0.86200
O1792       O  0.45820274  0.02944318  0.16884707    -0.85900
O1793       O  0.52670894  0.01851659  0.20139099    -0.72600
O1794       O  0.51151732  0.01931508  0.15383999    -0.84700
Zr1795     Zr  0.50983144  0.09547979  0.18072268     2.26400
Zr1796     Zr  0.51586797  0.04624168  0.23510435     2.06300
Zr1797     Zr  0.48180920  0.04828929  0.13630571     2.10000
Zr1798     Zr  0.44881719  0.05733435  0.20153047     1.78800
O1799       O  0.49978616  0.04595672  0.09458963    -0.93600
O1800       O  0.43280132  0.07800400  0.23884138    -0.41400
O1801       O  0.47058834  0.07769777  0.16805503    -0.78000
O1802       O  0.48706655  0.07536806  0.21453169    -0.96700
O1803       O  0.53835729  0.06708553  0.20157696    -0.90000
O1804       O  0.51998647  0.06658683  0.14864511    -0.92800
C1805       C  0.43946882  0.99929010  0.22903868     1.00900
C1806       C  0.46175732  0.98951238  0.12986619     1.13900
C1807       C  0.51281904  0.97355789  0.23678669     1.04600
O1808       O  0.50501816  0.04518842  0.27925995    -0.95000
O1809       O  0.51338655  0.09369319  0.25140590    -0.90700
O1810       O  0.50897817  0.12047198  0.21819015    -0.83900
C1811       C  0.51008534  0.11668814  0.24179879     1.11300
O1812       O  0.57513209  0.00177246  0.17653032    -0.97000
Zr1813     Zr  0.54919952  0.03897142  0.16875273     1.88900
O1814       O  0.54724004  0.10686980  0.15608791    -0.73600
O1815       O  0.55918298  0.04748648  0.24942325    -0.52900
O1816       O  0.58432630  0.05398811  0.19345738    -0.97500
O1817       O  0.56634530  0.01730296  0.13258226    -0.54800
O1818       O  0.56920087  0.07202434  0.14519236    -0.74100
C1819       C  0.56474068  0.09558656  0.14381844     0.98200
O1820       O  0.51815212  0.14037043  0.18216232    -0.62900
O1821       O  0.44050122  0.05397748  0.11718897    -0.57700
O1822       O  0.48198680  0.11574355  0.15048184    -0.94400
O1823       O  0.47880600  0.08931957  0.11806630    -0.92900
O1824       O  0.40876675  0.04663165  0.18231267    -0.93200
O1825       O  0.42354776  0.09519954  0.19588462    -0.92000
C1826       C  0.47487340  0.11058348  0.12822298     1.17100
H1827       H  0.44286640  0.02211063  0.16295966     0.33000
H1828       H  0.47974526  0.08712650  0.22588399     0.43900
H1829       H  0.52569070  0.07397515  0.13324993     0.37400
H1830       H  0.53784675  0.00541644  0.20733964     0.33900
H1831       H  0.41841670  0.06778594  0.24424013     0.25700
H1832       H  0.55965283  0.06206741  0.26072370     0.31600
H1833       H  0.59909780  0.05247535  0.18237560     0.37500
H1834       H  0.40347115  0.03107569  0.19078653     0.32000
H1835       H  0.44328796  0.05114296  0.09913600     0.30800
H1836       H  0.51184477  0.03173152  0.09541205     0.32500
H1837       H  0.58237888  0.02571826  0.12897122     0.31500
H1838       H  0.41859604  0.09510944  0.17803229     0.35500
H1839       H  0.51746161  0.14625585  0.16458993     0.28200
H1840       H  0.50756006  0.96280346  0.15454411     0.32500
H1841       H  0.59272149  0.00744566  0.17583785     0.35300
H1842       H  0.43055991  0.03949325  0.12275605     0.27900
H1843       H  0.53606507  0.14199989  0.18685967     0.40800
H1844       H  0.49097409  0.05737448  0.28085461     0.30800
H1845       H  0.44576784  0.07499071  0.25183288     0.38500
H1846       H  0.55513589  0.02231664  0.11858751     0.30300
H1847       H  0.56100807  0.03279879  0.26066132     0.30400
H1848       H  0.49177616  0.94871118  0.17483258     0.30600
Zr1849     Zr  0.10659907  0.31010478  0.95537187     2.17500
O1850       O  0.06248242  0.32061779  0.94840810    -0.51700
O1851       O  0.11051276  0.29196434  0.91438070    -0.74900
O1852       O  0.10424471  0.34699625  0.92750771    -0.81700
O1853       O  0.09186612  0.25729430  0.99963182    -0.83500
O1854       O  0.13690178  0.37238923  0.93627153    -0.79100
O1855       O  0.07308760  0.28319306  0.97085721    -0.90700
O1856       O  0.15014332  0.30289098  0.90578344    -0.76700
O1857       O  0.14502418  0.32894413  0.94434116    -0.86200
O1858       O  0.13590808  0.27559672  0.95386962    -0.85900
O1859       O  0.11450814  0.34116555  0.98681634    -0.72600
O1860       O  0.11156972  0.29251564  0.99597086    -0.84700
Zr1861     Zr  0.18478043  0.30907945  0.01728907     2.26400
Zr1862     Zr  0.15449691  0.35859982  0.97627408     2.06300
Zr1863     Zr  0.14135112  0.25904658  0.99568347     2.10000
Zr1864     Zr  0.17428281  0.29587166  0.94369246     1.78800
O1865       O  0.14283346  0.23079755  0.03151684    -0.93600
O1866       O  0.20749969  0.32333090  0.92849269    -0.41400
O1867       O  0.17356329  0.28383958  0.98478325    -0.78000
O1868       O  0.18595273  0.32572644  0.97536741    -0.96700
O1869       O  0.15473013  0.34210769  0.01772233    -0.90000
O1870       O  0.14731693  0.28829620  0.02914845    -0.92800
C1871       C  0.12835087  0.29581560  0.89897161     1.00900
C1872       C  0.07145927  0.26728637  0.98898651     1.13900
C1873       C  0.11811657  0.36601464  0.92275224     1.04600
O1874       O  0.17285479  0.39656889  0.95942652    -0.95000
O1875       O  0.19554011  0.37094376  0.99228732    -0.90700
O1876       O  0.20058877  0.34899885  0.02808503    -0.83900
C1877       C  0.20732948  0.36564673  0.01264903     1.11300
O1878       O  0.07151262  0.32893253  0.02913961    -0.97000
Zr1879     Zr  0.11674846  0.32205382  0.02799024     1.88900
O1880       O  0.17794128  0.31299070  0.06186280    -0.73600
O1881       O  0.13138100  0.39101829  0.99858086    -0.52900
O1882       O  0.10206348  0.36212882  0.04413645    -0.97500
O1883       O  0.09764462  0.29197569  0.05631788    -0.54800
O1884       O  0.13955702  0.33123230  0.06553856    -0.74100
C1885       C  0.16133048  0.32549562  0.07398469     0.98200
O1886       O  0.23044854  0.31306380  0.01846621    -0.62900
O1887       O  0.13550386  0.21912470  0.97489026    -0.57700
O1888       O  0.20735746  0.27088253  0.02516826    -0.94400
O1889       O  0.19102780  0.24971945  0.99335830    -0.92900
O1890       O  0.18138072  0.25079838  0.94206577    -0.93200
O1891       O  0.20343846  0.27622594  0.91432714    -0.92000
C1892       C  0.21087484  0.25615580  0.00697039     1.17100
H1893       H  0.13129629  0.26262465  0.94233195     0.33000
H1894       H  0.20259617  0.33180931  0.97214310     0.43900
H1895       H  0.14845177  0.28003458  0.04522389     0.37400
H1896       H  0.10149548  0.35390055  0.98612321     0.33900
H1897       H  0.22380736  0.31437700  0.92993828     0.25700
H1898       H  0.14398474  0.39853254  0.00979679     0.31600
H1899       H  0.09807979  0.37253670  0.02926340     0.37500
H1900       H  0.16972252  0.24450828  0.92916863     0.32000
H1901       H  0.12290310  0.22254154  0.96162697     0.30800
H1902       H  0.15669780  0.21892898  0.02770390     0.32500
H1903       H  0.08421818  0.28400521  0.04645946     0.31500
H1904       H  0.19377840  0.27423374  0.89866623     0.35500
H1905       H  0.23670648  0.30462571  0.03383096     0.28200
H1906       H  0.05957740  0.31726581  0.93048379     0.32500
H1907       H  0.06763370  0.33945603  0.01429833     0.35300
H1908       H  0.15138372  0.21596318  0.96583838     0.27900
H1909       H  0.23720255  0.30327134  0.00432201     0.40800
H1910       H  0.18349930  0.39085956  0.94537901     0.30800
H1911       H  0.20445002  0.32524268  0.91031132     0.38500
H1912       H  0.08866055  0.30225744  0.06884843     0.30300
H1913       H  0.12778334  0.40410540  0.98585765     0.30400
H1914       H  0.06123382  0.33903071  0.94991752     0.30600
Zr1915     Zr  0.94670281  0.26288073  0.94684691     2.17500
O1916       O  0.98904680  0.24881331  0.95708696    -0.51700
O1917       O  0.95335885  0.30423294  0.93138766    -0.74900
O1918       O  0.97319385  0.26273620  0.91143916    -0.81700
O1919       O  0.94163563  0.26085091  0.00924160    -0.83500
O1920       O  0.95032141  0.24397798  0.88114154    -0.79100
O1921       O  0.95963749  0.28608568  0.98176622    -0.90700
O1922       O  0.91649955  0.31674043  0.91390097    -0.76700
O1923       O  0.92112999  0.26519729  0.91094905    -0.86200
O1924       O  0.91010994  0.28521609  0.96020556    -0.85900
O1925       O  0.94126785  0.22016498  0.93546828    -0.72600
O1926       O  0.93072087  0.23891509  0.98103349    -0.84700
Zr1927     Zr  0.86005148  0.21843137  0.94604606     2.26400
Zr1928     Zr  0.91430412  0.22313072  0.89976203     2.06300
Zr1929     Zr  0.89388810  0.26072399  0.99420870     2.10000
Zr1930     Zr  0.88426267  0.28589868  0.92367625     1.78800
O1931       O  0.88544468  0.24667959  0.03668680    -0.93600
O1932       O  0.88091070  0.29253255  0.87865349    -0.41400
O1933       O  0.86803071  0.26111817  0.95721416    -0.78000
O1934       O  0.87551719  0.24329355  0.91171518    -0.96700
O1935       O  0.89782720  0.19889846  0.93314053    -0.90000
O1936       O  0.88527328  0.21776507  0.98346533    -0.92800
C1937       C  0.93993128  0.31970201  0.91871010     1.00900
C1938       C  0.96172081  0.27281968  0.00121200     1.13900
C1939       C  0.96937329  0.25625526  0.88897062     1.04600
O1940       O  0.89752773  0.23493422  0.85895755    -0.95000
O1941       O  0.88869135  0.18912214  0.88598912    -0.90700
O1942       O  0.85307606  0.19233823  0.90909796    -0.83900
C1943       C  0.86645792  0.18248853  0.89164686     1.11300
O1944       O  0.96430767  0.19110996  0.98815106    -0.97000
Zr1945     Zr  0.92291085  0.19706860  0.96942940     1.88900
O1946       O  0.85869843  0.17639385  0.96443860    -0.73600
O1947       O  0.94065767  0.19002638  0.88215953    -0.52900
O1948       O  0.95014912  0.16179838  0.95899260    -0.97500
O1949       O  0.91137634  0.18033287  0.01030335    -0.54800
O1950       O  0.89761689  0.16341430  0.95502332    -0.74100
C1951       C  0.87502295  0.15888428  0.96104110     0.98200
O1952       O  0.81548342  0.21391965  0.93674861    -0.62900
O1953       O  0.89246940  0.30140332  0.01450240    -0.57700
O1954       O  0.82629068  0.23833452  0.96953771    -0.94400
O1955       O  0.84477239  0.26635038  0.99552660    -0.92900
O1956       O  0.86680796  0.32342974  0.94282619    -0.93200
O1957       O  0.84229880  0.29781359  0.90964910    -0.92000
C1958       C  0.82462124  0.25640891  0.98516192     1.17100
H1959       H  0.91407429  0.30197070  0.96539165     0.33000
H1960       H  0.86368122  0.24314614  0.89800671     0.43900
H1961       H  0.87685552  0.20921316  0.99692567     0.37400
H1962       H  0.95713576  0.21261904  0.93083299     0.33900
H1963       H  0.88079333  0.31092807  0.87643534     0.25700
H1964       H  0.95691489  0.19770766  0.87800272     0.31600
H1965       H  0.95026617  0.16151051  0.94049851     0.37500
H1966       H  0.86734429  0.31993901  0.96100391     0.32000
H1967       H  0.90781523  0.31002472  0.00894313     0.30800
H1968       H  0.87579207  0.26062524  0.04427587     0.32500
H1969       H  0.92118013  0.18991478  0.02262445     0.31500
H1970       H  0.83688973  0.28399499  0.89873534     0.35500
H1971       H  0.81345820  0.21876903  0.91896497     0.28200
H1972       H  0.99992586  0.26316380  0.95323854     0.32500
H1973       H  0.96202310  0.19416915  0.00622165     0.35300
H1974       H  0.87851111  0.31057091  0.00612966     0.27900
H1975       H  0.81236521  0.19572367  0.93718489     0.40800
H1976       H  0.91066773  0.22959284  0.84701352     0.30800
H1977       H  0.89730640  0.28698492  0.87186447     0.38500
H1978       H  0.91882154  0.16327435  0.01076662     0.30300
H1979       H  0.94451717  0.17878231  0.89646023     0.30400
H1980       H  0.99367819  0.23557827  0.94506926     0.30600
Zr1981     Zr  0.61145136  0.20695105  0.03691299     2.17500
O1982       O  0.57138951  0.21286442  0.05828739    -0.51700
O1983       O  0.62050268  0.21878654  0.08012631    -0.74900
O1984       O  0.59816852  0.16678170  0.05283909    -0.81700
O1985       O  0.59567616  0.26099165  0.99314420    -0.83500
O1986       O  0.63247912  0.14145649  0.05237838    -0.79100
O1987       O  0.57725706  0.23082223  0.01690226    -0.90700
O1988       O  0.66032480  0.20566889  0.08600758    -0.76700
O1989       O  0.64941411  0.18574008  0.04801478    -0.86200
O1990       O  0.64186666  0.23945485  0.03833074    -0.85900
O1991       O  0.61712253  0.17555016  0.00496589    -0.72600
O1992       O  0.61581366  0.22399741  0.99610945    -0.84700
Zr1993     Zr  0.68918589  0.20546739  0.97472446     2.26400
Zr1994     Zr  0.65627425  0.15587029  0.01579936     2.06300
Zr1995     Zr  0.64508949  0.25697905  0.99646698     2.10000
Zr1996     Zr  0.68032309  0.21709339  0.04794016     1.78800
O1997       O  0.64536227  0.28494440  0.96039351    -0.93600
O1998       O  0.72030733  0.19650578  0.05909714    -0.41400
O1999       O  0.68223413  0.23431066  0.00742006    -0.78000
O2000       O  0.68854420  0.18687343  0.01592108    -0.96700
O2001       O  0.65843028  0.17338050  0.97488061    -0.90000
O2002       O  0.65159274  0.22736227  0.96292905    -0.92800
C2003       C  0.63912214  0.21262648  0.09429302     1.00900
C2004       C  0.57543968  0.24945572  0.00163996     1.13900
C2005       C  0.61060624  0.14764971  0.06065578     1.04600
O2006       O  0.68017376  0.12461770  0.03944089    -0.95000
O2007       O  0.69210512  0.13797592  0.99381495    -0.90700
O2008       O  0.71357678  0.16800176  0.97277276    -0.83900
C2009       C  0.71039480  0.14566181  0.98027838     1.11300
O2010       O  0.58047663  0.17416434  0.96815313    -0.97000
Zr2011     Zr  0.62089842  0.19451791  0.96365814     1.88900
O2012       O  0.67763828  0.19888638  0.93185108    -0.73600
O2013       O  0.63356006  0.12262480  0.99502143    -0.52900
O2014       O  0.59702786  0.18030651  0.92759319    -0.97500
O2015       O  0.60505599  0.23153937  0.94156493    -0.54800
O2016       O  0.64852441  0.17045761  0.93635473    -0.74100
C2017       C  0.66880713  0.17771182  0.92615957     0.98200
O2018       O  0.73236458  0.20283500  0.95961565    -0.62900
O2019       O  0.63798871  0.29595925  0.01876845    -0.57700
O2020       O  0.71154221  0.24427994  0.96839040    -0.94400
O2021       O  0.69351808  0.26843551  0.99749517    -0.92900
O2022       O  0.68255584  0.26263046  0.05015989    -0.93200
O2023       O  0.71331097  0.22728592  0.07802486    -0.92000
C2024       C  0.71362938  0.26146169  0.98458584     1.17100
H2025       H  0.63712692  0.25197597  0.05042467     0.33000
H2026       H  0.70428543  0.17844751  0.01899655     0.43900
H2027       H  0.65305150  0.23569005  0.94693546     0.37400
H2028       H  0.60396923  0.16333908  0.00567299     0.33900
H2029       H  0.71624210  0.17868429  0.06189166     0.25700
H2030       H  0.64653888  0.10974475  0.99138727     0.31600
H2031       H  0.60651328  0.18599075  0.91277774     0.37500
H2032       H  0.67494895  0.26750267  0.06626882     0.32000
H2033       H  0.63240322  0.30801356  0.00571385     0.30800
H2034       H  0.66020234  0.29556161  0.96305095     0.32500
H2035       H  0.58678963  0.22885949  0.93978620     0.31500
H2036       H  0.71296294  0.24556069  0.08070017     0.35500
H2037       H  0.73326672  0.21250519  0.94380873     0.28200
H2038       H  0.57185447  0.23004603  0.06506677     0.32500
H2039       H  0.57085519  0.18494137  0.97975687     0.35300
H2040       H  0.62274636  0.29296151  0.02882885     0.27900
H2041       H  0.74301918  0.21180840  0.97173778     0.40800
H2042       H  0.69062744  0.13447792  0.05099362     0.30800
H2043       H  0.73137769  0.19658982  0.04427366     0.38500
H2044       H  0.61173190  0.23017420  0.92437239     0.30300
H2045       H  0.62315030  0.11505716  0.00828009     0.30400
H2046       H  0.57227738  0.20198576  0.07331740     0.30600
Zr2047     Zr  0.35880069  0.29402059  0.04960472     2.17500
O2048       O  0.31970980  0.31837905  0.05123757    -0.51700
O2049       O  0.36932873  0.33825057  0.04229411    -0.74900
O2050       O  0.34157324  0.30242907  0.09031272    -0.81700
O2051       O  0.34436588  0.25316969  0.99597025    -0.83500
O2052       O  0.37411164  0.30242065  0.11678620    -0.79100
O2053       O  0.32552468  0.28221058  0.02051129    -0.90700
O2054       O  0.41112674  0.34381781  0.04675955    -0.76700
O2055       O  0.39434809  0.30054065  0.07538222    -0.86200
O2056       O  0.39290261  0.29699956  0.02071122    -0.85900
O2057       O  0.36057688  0.25817371  0.07753286    -0.72600
O2058       O  0.36278368  0.25414783  0.03034637    -0.84700
Zr2059     Zr  0.43572991  0.22980356  0.05336445     2.26400
Zr2060     Zr  0.39695132  0.26523620  0.10266074     2.06300
Zr2061     Zr  0.39443451  0.25696269  0.99979437     2.10000
Zr2062     Zr  0.42885947  0.30282820  0.04795761     1.78800
O2063       O  0.39594364  0.22530661  0.96729419    -0.93600
O2064       O  0.44367591  0.32980548  0.08144049    -0.41400
O2065       O  0.42833711  0.26444601  0.02689702    -0.78000
O2066       O  0.43341178  0.26839768  0.07661294    -0.96700
O2067       O  0.40205163  0.22585023  0.08228772    -0.90000
O2068       O  0.40040884  0.22103540  0.02699296    -0.92800
C2069       C  0.38879067  0.35220486  0.04420096     1.00900
C2070       C  0.32368042  0.26418862  0.00500303     1.13900
C2071       C  0.35262772  0.31088899  0.10962305     1.04600
O2072       O  0.41721063  0.28274760  0.13932836    -0.95000
O2073       O  0.42783593  0.23791215  0.12215443    -0.90700
O2074       O  0.45608082  0.22470650  0.09350392    -0.83900
C2075       C  0.44848315  0.22695377  0.11602779     1.11300
O2076       O  0.33471277  0.18619651  0.05872602    -0.97000
Zr2077     Zr  0.36673195  0.21828693  0.05687624     1.88900
O2078       O  0.42446492  0.18670004  0.05022990    -0.73600
O2079       O  0.36740194  0.24568612  0.13108117    -0.52900
O2080       O  0.33388562  0.21518484  0.08847637    -0.97500
O2081       O  0.35117728  0.19914714  0.01855893    -0.54800
O2082       O  0.39231388  0.18555315  0.07622892    -0.74100
C2083       C  0.41315105  0.17667604  0.06837274     0.98200
O2084       O  0.47418987  0.20604153  0.04477077    -0.62900
O2085       O  0.38881902  0.28547851  0.96452063    -0.57700
O2086       O  0.46630864  0.24128345  0.02239420    -0.94400
O2087       O  0.44363358  0.25691330  0.98949550    -0.92900
O2088       O  0.44930596  0.31985137  0.01107744    -0.93200
O2089       O  0.47435368  0.29807078  0.05063073    -0.92000
C2090       C  0.46548467  0.25090429  0.00049037     1.17100
H2091       H  0.39072267  0.31057846  0.00888335     0.33000
H2092       H  0.44818800  0.27086985  0.08675145     0.43900
H2093       H  0.40242911  0.20618656  0.01696571     0.37400
H2094       H  0.34579587  0.25789056  0.08786937     0.33900
H2095       H  0.43193221  0.32694968  0.09543284     0.25700
H2096       H  0.37682644  0.23132703  0.13839955     0.31600
H2097       H  0.34281342  0.20981476  0.10389412     0.37500
H2098       H  0.44784314  0.30665932  0.99828964     0.32000
H2099       H  0.40015887  0.27882484  0.95146287     0.30800
H2100       H  0.38380702  0.23133001  0.95449331     0.32500
H2101       H  0.35997896  0.18274959  0.01762312     0.31500
H2102       H  0.47754915  0.27993337  0.05298680     0.35500
H2103       H  0.48748625  0.21373892  0.05496059     0.28200
H2104       H  0.31664016  0.32506456  0.03421246     0.32500
H2105       H  0.34399347  0.17053095  0.06286779     0.35300
H2106       H  0.37172109  0.28205008  0.95823049     0.27900
H2107       H  0.47193269  0.18925306  0.05220901     0.40800
H2108       H  0.43363364  0.28865671  0.13323363     0.30800
H2109       H  0.45975389  0.32246198  0.08742686     0.38500
H2110       H  0.35828078  0.20884373  0.00454565     0.30300
H2111       H  0.36561616  0.25767463  0.14500954     0.30400
H2112       H  0.30594777  0.30652414  0.05446298     0.30600
Zr2113     Zr  0.54135127  0.09884694  0.72563203     2.17500
O2114       O  0.54788622  0.05445302  0.73443714    -0.51700
O2115       O  0.58346348  0.10804334  0.74068753    -0.74900
O2116       O  0.56660193  0.08034515  0.69216314    -0.81700
O2117       O  0.48921508  0.09287603  0.76961626    -0.83500
O2118       O  0.56821405  0.10984876  0.66187516    -0.79100
O2119       O  0.52521548  0.07255819  0.75887120    -0.90700
O2120       O  0.58982872  0.14219009  0.71717728    -0.76700
O2121       O  0.55693579  0.13208106  0.70078160    -0.86200
O2122       O  0.53876281  0.13441591  0.75295715    -0.85900
O2123       O  0.51389518  0.10010920  0.68969493    -0.72600
O2124       O  0.49820915  0.10695916  0.73444709    -0.84700
Zr2125     Zr  0.48523704  0.17823664  0.69924171     2.26400
Zr2126     Zr  0.53027112  0.13404783  0.66548044     2.06300
Zr2127     Zr  0.49457924  0.14145520  0.76165965     2.10000
Zr2128     Zr  0.55374931  0.16765934  0.72662621     1.78800
O2129       O  0.45361572  0.14498738  0.78144876    -0.93600
O2130       O  0.59069086  0.19419700  0.72693260    -0.41400
O2131       O  0.51084658  0.17272291  0.73524186    -0.78000
O2132       O  0.52905974  0.17192117  0.68926248    -0.96700
O2133       O  0.48791568  0.14098301  0.67528229    -0.90000
O2134       O  0.46757784  0.14601253  0.72543589    -0.92800
C2135       C  0.59798277  0.12392951  0.73031275     1.00900
C2136       C  0.50300746  0.07207285  0.76795836     1.13900
C2137       C  0.57591936  0.08945142  0.67201135     1.04600
O2138       O  0.55738230  0.14893207  0.63217381    -0.95000
O2139       O  0.51808499  0.16818168  0.63814052    -0.90700
O2140       O  0.49614872  0.19742828  0.65951139    -0.83900
C2141       C  0.50810957  0.19002439  0.64015942     1.11300
O2142       O  0.46789083  0.06414077  0.70980880    -0.97000
Zr2143     Zr  0.47023910  0.10849242  0.70015754     1.88900
O2144       O  0.44415235  0.16267646  0.68738148    -0.73600
O2145       O  0.51674020  0.10298986  0.63527083    -0.52900
O2146       O  0.45872506  0.08087680  0.66601074    -0.97500
O2147       O  0.43347578  0.10574834  0.72699508    -0.54800
O2148       O  0.44095409  0.12599022  0.67011153    -0.74100
C2149       C  0.44044815  0.14961604  0.66784943     0.98200
O2150       O  0.46120815  0.21706445  0.69559381    -0.62900
O2151       O  0.50929346  0.14106976  0.80479756    -0.57700
O2152       O  0.48708420  0.21079456  0.73104988    -0.94400
O2153       O  0.49417556  0.19065449  0.76813464    -0.92900
O2154       O  0.55833754  0.17744406  0.77080323    -0.93200
O2155       O  0.55342186  0.21159676  0.71405198    -0.92000
C2156       C  0.49120930  0.21153781  0.75470394     1.17100
H2157       H  0.54864303  0.13173796  0.76792513     0.33000
H2158       H  0.53605027  0.18547547  0.67970236     0.43900
H2159       H  0.45068735  0.15009985  0.73066976     0.37400
H2160       H  0.51538651  0.08438376  0.68102231     0.33900
H2161       H  0.59946171  0.19034657  0.74284936     0.25700
H2162       H  0.52752679  0.08804721  0.63826117     0.31600
H2163       H  0.47376892  0.07037462  0.66267577     0.37500
H2164       H  0.54484986  0.18983539  0.77422361     0.32000
H2165       H  0.49482952  0.13498309  0.81455913     0.30800
H2166       H  0.44912566  0.16297088  0.78007851     0.32500
H2167       H  0.43701904  0.09146899  0.73838694     0.31500
H2168       H  0.53563844  0.21706080  0.71506482     0.35500
H2169       H  0.45665928  0.21852432  0.67773987     0.28200
H2170       H  0.56620486  0.05201404  0.73635648     0.32500
H2171       H  0.48560304  0.05855904  0.71158910     0.35300
H2172       H  0.52170920  0.12715312  0.80563679     0.27900
H2173       H  0.44520857  0.21362679  0.70418653     0.40800
H2174       H  0.56946143  0.15998471  0.64065060     0.30800
H2175       H  0.60199892  0.18762281  0.71380070     0.38500
H2176       H  0.41995147  0.09985398  0.71585271     0.30300
H2177       H  0.49977556  0.09797780  0.64051501     0.30400
H2178       H  0.54332556  0.04568991  0.71885484     0.30600
Zr2179     Zr  0.54660999  0.94128196  0.74048222     2.17500
O2180       O  0.53955900  0.98545440  0.73012548    -0.51700
O2181       O  0.55573403  0.93658111  0.69684120    -0.74900
O2182       O  0.58416004  0.96579738  0.73950249    -0.81700
O2183       O  0.48635400  0.94257644  0.76602191    -0.83500
O2184       O  0.61503121  0.94338957  0.75867335    -0.79100
O2185       O  0.50685803  0.96288958  0.73583432    -0.90700
O2186       O  0.56683436  0.89623910  0.69067879    -0.76700
O2187       O  0.57904780  0.91048749  0.73852651    -0.86200
O2188       O  0.52588324  0.90400205  0.72750016    -0.85900
O2189       O  0.56348955  0.94033254  0.78225482    -0.72600
O2190       O  0.51876139  0.92935532  0.77265063    -0.84700
Zr2191     Zr  0.54700032  0.86063986  0.80109944     2.26400
Zr2192     Zr  0.59565759  0.90845185  0.78021233     2.06300
Zr2193     Zr  0.49632033  0.89383195  0.76031467     2.10000
Zr2194     Zr  0.55856085  0.87269859  0.72797938     1.78800
O2195       O  0.45437332  0.88906276  0.77748855    -0.93600
O2196       O  0.59756439  0.84916855  0.72119201    -0.41400
O2197       O  0.52992042  0.86431528  0.76025643    -0.78000
O2198       O  0.57767310  0.86891048  0.76907129    -0.96700
O2199       O  0.56629722  0.89859321  0.81260895    -0.90000
O2200       O  0.51283465  0.89024463  0.80235940    -0.92800
C2201       C  0.56491708  0.91895220  0.68357799     1.00900
C2202       C  0.49208360  0.96381088  0.75440016     1.13900
C2203       C  0.60702150  0.96219270  0.74579431     1.04600
O2204       O  0.63101574  0.88474682  0.76340430    -0.95000
O2205       O  0.60965554  0.88833744  0.81856922    -0.90700
O2206       O  0.58837256  0.85203499  0.81812351    -0.83900
C2207       C  0.60530817  0.86636228  0.82683584     1.11300
O2208       O  0.51949348  0.96871067  0.82967247    -0.97000
Zr2209     Zr  0.53361332  0.92831814  0.81390954     1.88900
O2210       O  0.52777963  0.86529920  0.84194912    -0.73600
O2211       O  0.62550155  0.93446648  0.80244436    -0.52900
O2212       O  0.56550833  0.95224928  0.83557766    -0.97500
O2213       O  0.49005835  0.93776450  0.82473889    -0.54800
O2214       O  0.53450918  0.90548795  0.85239682    -0.74100
C2215       C  0.52757770  0.88338761  0.85756024     0.98200
O2216       O  0.55479228  0.82031714  0.82168497    -0.62900
O2217       O  0.47170077  0.89383639  0.72187801    -0.57700
O2218       O  0.52362249  0.82592416  0.78359440    -0.94400
O2219       O  0.49454376  0.84395148  0.75773212    -0.92900
O2220       O  0.52168132  0.85059108  0.71337830    -0.93200
O2221       O  0.56161517  0.83625189  0.70089356    -0.92000
C2222       C  0.50631428  0.82376468  0.76705154     1.17100
H2223       H  0.51798663  0.90593967  0.71131927     0.33000
H2224       H  0.59040253  0.85591340  0.76952391     0.43900
H2225       H  0.49941027  0.88583963  0.81357167     0.37400
H2226       H  0.57062837  0.95629782  0.78638458     0.33900
H2227       H  0.61111382  0.86041529  0.72654022     0.25700
H2228       H  0.61787521  0.93747480  0.81902097     0.31600
H2229       H  0.57517404  0.93967837  0.84543090     0.37500
H2230       H  0.51509682  0.86071562  0.69919774     0.32000
H2231       H  0.46893161  0.87591181  0.71842775     0.30800
H2232       H  0.45571885  0.89463496  0.79503514     0.32500
H2233       H  0.48664149  0.92719039  0.83954495     0.31500
H2234       H  0.56216109  0.84310575  0.68367057     0.35500
H2235       H  0.56159983  0.80904386  0.80868520     0.28200
H2236       H  0.54978349  0.98889572  0.71509532     0.32500
H2237       H  0.52059486  0.96735221  0.84812639     0.35300
H2238       H  0.45498753  0.90045573  0.72670496     0.27900
H2239       H  0.53819911  0.81346204  0.82605138     0.40800
H2240       H  0.64336661  0.88383279  0.77724568     0.30800
H2241       H  0.59793099  0.83520273  0.73342823     0.38500
H2242       H  0.47982432  0.93032837  0.81133918     0.30300
H2243       H  0.64029750  0.92355920  0.80584818     0.30400
H2244       H  0.54741265  0.99518353  0.74369344     0.30600
Zr2245     Zr  0.51838386  0.67954779  0.81624256     2.17500
O2246       O  0.54667722  0.71508177  0.81683400    -0.51700
O2247       O  0.55978433  0.66090527  0.81268671    -0.74900
O2248       O  0.51927571  0.69999241  0.85681401    -0.81700
O2249       O  0.49517991  0.69233848  0.75122923    -0.83500
O2250       O  0.50601850  0.67117433  0.88462781    -0.79100
O2251       O  0.50881323  0.71213969  0.78611249    -0.90700
O2252       O  0.56576482  0.62896411  0.83759365    -0.76700
O2253       O  0.52294269  0.64330568  0.84188258    -0.86200
O2254       O  0.52774307  0.64635003  0.78697393    -0.85900
O2255       O  0.47947298  0.67487309  0.83866429    -0.72600
O2256       O  0.48354327  0.67582367  0.78861083    -0.84700
Zr2257     Zr  0.45784625  0.60297037  0.80842959     2.26400
Zr2258     Zr  0.48481877  0.63749992  0.86321335     2.06300
Zr2259     Zr  0.49201669  0.64321506  0.75978504     2.10000
Zr2260     Zr  0.53274900  0.60985032  0.81414584     1.78800
O2261       O  0.46147730  0.64330225  0.72581113    -0.93600
O2262       O  0.54246379  0.57641407  0.84390290    -0.41400
O2263       O  0.49688838  0.60951998  0.78810444    -0.78000
O2264       O  0.49364662  0.60268685  0.83629053    -0.96700
O2265       O  0.44964566  0.63650450  0.83592534    -0.90000
O2266       O  0.45260995  0.63839896  0.78104310    -0.92800
C2267       C  0.57041461  0.65142021  0.83182842     1.00900
C2268       C  0.50100257  0.71310228  0.76354634     1.13900
C2269       C  0.51472426  0.69283757  0.87923432     1.04600
O2270       O  0.50608048  0.60549313  0.88838754    -0.95000
O2271       O  0.44582891  0.61845581  0.87598605    -0.90700
O2272       O  0.43524172  0.59099619  0.84576718    -0.83900
C2273       C  0.43204642  0.60120633  0.86711064     1.11300
O2274       O  0.44626610  0.71722548  0.81325091    -0.97000
Zr2275     Zr  0.44498171  0.67193882  0.80999188     1.88900
O2276       O  0.41442204  0.61126744  0.79781292    -0.73600
O2277       O  0.47218430  0.65233683  0.90435002    -0.52900
O2278       O  0.41960965  0.68967730  0.84341765    -0.97500
O2279       O  0.42501873  0.69131736  0.77382433    -0.54800
O2280       O  0.40540475  0.65069760  0.81001707    -0.74100
C2281       C  0.39885040  0.62896272  0.80306220     0.98200
O2282       O  0.45072879  0.55800399  0.80987621    -0.62900
O2283       O  0.52125556  0.64355850  0.72491263    -0.57700
O2284       O  0.46340075  0.57505403  0.77364307    -0.94400
O2285       O  0.49599775  0.59356874  0.75422928    -0.92900
O2286       O  0.57120198  0.60937290  0.78954039    -0.93200
O2287       O  0.53974867  0.57060843  0.79223316    -0.92000
C2288       C  0.48333007  0.57313033  0.76060445     1.17100
H2289       H  0.54191769  0.64909185  0.77608376     0.33000
H2290       H  0.49422016  0.58707240  0.84544739     0.43900
H2291       H  0.43916901  0.63653660  0.76908933     0.37400
H2292       H  0.47564647  0.68896436  0.84923456     0.33900
H2293       H  0.55979704  0.57104146  0.83973775     0.25700
H2294       H  0.45396437  0.65603916  0.90321854     0.31600
H2295       H  0.42051890  0.67708147  0.85703985     0.37500
H2296       H  0.58350787  0.59984673  0.79988876     0.32000
H2297       H  0.53148508  0.62811915  0.72719115     0.30800
H2298       H  0.46191493  0.62596230  0.71944904     0.32500
H2299       H  0.40963643  0.69946147  0.78038779     0.31500
H2300       H  0.53998221  0.57512112  0.77426434     0.35500
H2301       H  0.45877994  0.55203467  0.82555410     0.28200
H2302       H  0.53612410  0.73040709  0.81792190     0.32500
H2303       H  0.46426202  0.72111113  0.81531980     0.35300
H2304       H  0.51078835  0.64025010  0.71000455     0.27900
H2305       H  0.43248802  0.55606891  0.81264096     0.40800
H2306       H  0.49285089  0.59334444  0.89253029     0.30800
H2307       H  0.54415550  0.58497198  0.86015796     0.38500
H2308       H  0.41917064  0.67734677  0.76338573     0.30300
H2309       H  0.47370129  0.63765585  0.91562027     0.30400
H2310       H  0.55439684  0.71576196  0.80003951     0.30600
Zr2311     Zr  0.43178558  0.42959851  0.75270586     2.17500
O2312       O  0.42173108  0.47346262  0.74416069    -0.51700
O2313       O  0.41944884  0.43295737  0.79547511    -0.74900
O2314       O  0.38665452  0.43548902  0.75054220    -0.81700
O2315       O  0.49888735  0.44131933  0.76113237    -0.83500
O2316       O  0.36878312  0.40617125  0.72590438    -0.79100
O2317       O  0.46111871  0.46200912  0.76093017    -0.90700
O2318       O  0.41348538  0.39369661  0.80981619    -0.76700
O2319       O  0.40669579  0.39376903  0.75109948    -0.86200
O2320       O  0.45384512  0.40018553  0.77911417    -0.85900
O2321       O  0.42792084  0.41982111  0.70919584    -0.72600
O2322       O  0.47197418  0.42195416  0.73488685    -0.84700
Zr2323     Zr  0.46437991  0.34616618  0.71429979     2.26400
Zr2324     Zr  0.40355986  0.38233259  0.70823761     2.06300
Zr2325     Zr  0.49365297  0.39168850  0.76004917     2.10000
Zr2326     Zr  0.42708317  0.36453941  0.77721753     1.78800
O2327       O  0.53805409  0.38956427  0.74959711    -0.93600
O2328       O  0.45089627  0.34665416  0.81208740    -0.41400
O2329       O  0.46627675  0.35715785  0.75753300    -0.78000
O2330       O  0.42405989  0.35121775  0.73387240    -0.96700
O2331       O  0.44369288  0.37681725  0.68961408    -0.90000
O2332       O  0.49124416  0.38160708  0.71655988    -0.92800
C2333       C  0.41260976  0.41756885  0.81243200     1.00900
C2334       C  0.48504698  0.46234249  0.76133749     1.13900
C2335       C  0.36752287  0.42480116  0.74093957     1.04600
O2336       O  0.36947445  0.35257152  0.71069958    -0.95000
O2337       O  0.40595659  0.35304926  0.67327798    -0.90700
O2338       O  0.44055835  0.32887693  0.68075777    -0.83900
C2339       C  0.42109076  0.33490827  0.66803567     1.11300
O2340       O  0.46742678  0.45767551  0.68516517    -0.97000
Zr2341     Zr  0.46903410  0.41254464  0.69186266     1.88900
O2342       O  0.49281631  0.34707285  0.67919473    -0.73600
O2343       O  0.38425002  0.40647385  0.67435936    -0.52900
O2344       O  0.44863065  0.41759406  0.65128687    -0.97500
O2345       O  0.50883411  0.43360602  0.68588608    -0.54800
O2346       O  0.49239108  0.38663521  0.66343892    -0.74100
C2347       C  0.49934452  0.36368569  0.66323686     0.98200
O2348       O  0.46062314  0.30090795  0.71809567    -0.62900
O2349       O  0.51179373  0.39583468  0.80163995    -0.57700
O2350       O  0.49855152  0.32277193  0.73194963    -0.94400
O2351       O  0.49847230  0.34238967  0.76893782    -0.92900
O2352       O  0.41706667  0.32138884  0.78752756    -0.93200
O2353       O  0.38264235  0.35675516  0.78348989    -0.92000
C2354       C  0.50055448  0.32150600  0.75553996     1.17100
H2355       H  0.45702793  0.40600173  0.79583945     0.33000
H2356       H  0.41496297  0.33576241  0.73283370     0.43900
H2357       H  0.50796145  0.37824606  0.71042563     0.37400
H2358       H  0.41931603  0.43328315  0.70045623     0.33900
H2359       H  0.46201140  0.33377249  0.80458648     0.25700
H2360       H  0.39284198  0.40059100  0.65906612     0.31600
H2361       H  0.43211201  0.42540675  0.65490579     0.37500
H2362       H  0.41712091  0.31255695  0.77133749     0.32000
H2363       H  0.49737196  0.39545601  0.81323066     0.30800
H2364       H  0.54405068  0.37361043  0.75713778     0.32500
H2365       H  0.51201178  0.43282596  0.66768087     0.31500
H2366       H  0.37627458  0.35209585  0.76677474     0.35500
H2367       H  0.44242816  0.29761221  0.71906803     0.28200
H2368       H  0.41208115  0.47920278  0.75889216     0.32500
H2369       H  0.45142979  0.46115596  0.67628812     0.35300
H2370       H  0.52070732  0.37972567  0.80463306     0.27900
H2371       H  0.46614559  0.29394130  0.70188900     0.40800
H2372       H  0.35789802  0.35754995  0.69698479     0.30800
H2373       H  0.46240831  0.36008573  0.81717579     0.38500
H2374       H  0.52155750  0.42214973  0.69338253     0.30300
H2375       H  0.36704925  0.39985975  0.67292023     0.30400
H2376       H  0.40937780  0.47339643  0.73030399     0.30600
Zr2377     Zr  0.31681826  0.50583172  0.91247337     2.17500
O2378       O  0.32207816  0.51797127  0.86859633    -0.51700
O2379       O  0.33658284  0.54593520  0.90334181    -0.74900
O2380       O  0.27951003  0.50378030  0.88670637    -0.81700
O2381       O  0.37803432  0.46772681  0.91736967    -0.83500
O2382       O  0.24571971  0.50386008  0.91274641    -0.79100
O2383       O  0.34677531  0.47930150  0.89054123    -0.90700
O2384       O  0.34074543  0.56859342  0.93874793    -0.76700
O2385       O  0.29349879  0.53038398  0.94205664    -0.86200
O2386       O  0.34812147  0.51693286  0.94210786    -0.85900
O2387       O  0.28515011  0.47929518  0.93055224    -0.72600
O2388       O  0.33399549  0.46782668  0.92961615    -0.84700
Zr2389     Zr  0.31324270  0.47929911  0.00636468     2.26400
Zr2390     Zr  0.26167945  0.50349345  0.96054492     2.06300
Zr2391     Zr  0.36517096  0.47928010  0.95940599     2.10000
Zr2392     Zr  0.32551846  0.54202258  0.97139737     1.78800
O2393       O  0.40256881  0.45260581  0.95735793    -0.93600
O2394       O  0.29790324  0.57870848  0.97201325    -0.41400
O2395       O  0.34513785  0.50541177  0.98980221    -0.78000
O2396       O  0.29400724  0.51656588  0.98923587    -0.96700
O2397       O  0.28105511  0.46656572  0.97799971    -0.90000
O2398       O  0.33370183  0.45326306  0.97696482    -0.92800
C2399       C  0.34494421  0.56458599  0.91566399     1.00900
C2400       C  0.36800542  0.46884249  0.89556770     1.13900
C2401       C  0.25579282  0.50274448  0.88987435     1.04600
O2402       O  0.23477037  0.54061465  0.96131388    -0.95000
O2403       O  0.24910909  0.50442570  0.00962727    -0.90700
O2404       O  0.28021186  0.48742072  0.03412435    -0.83900
C2405       C  0.25889340  0.49799006  0.03199801     1.11300
O2406       O  0.29937794  0.42414698  0.90607343    -0.97000
Zr2407     Zr  0.30285893  0.44226521  0.94761776     1.88900
O2408       O  0.29812788  0.43864731  0.01933045    -0.73600
O2409       O  0.22528562  0.47647591  0.96079186    -0.52900
O2410       O  0.26223180  0.42358749  0.93925068    -0.97500
O2411       O  0.33256077  0.40756129  0.94230340    -0.54800
O2412       O  0.29405005  0.41725495  0.98321769    -0.74100
C2413       C  0.29223648  0.41917431  0.00686990     0.98200
O2414       O  0.32061009  0.49952833  0.04647810    -0.62900
O2415       O  0.39792018  0.51038497  0.96369891    -0.57700
O2416       O  0.35079291  0.46395240  0.02671742    -0.94400
O2417       O  0.37854179  0.45514063  0.99604055    -0.92900
O2418       O  0.36505844  0.56110268  0.98328451    -0.93200
O2419       O  0.32415735  0.55784332  0.01403161    -0.92000
C2420       C  0.37017996  0.45250843  0.01836672     1.17100
H2421       H  0.36225709  0.52522991  0.93477037     0.33000
H2422       H  0.28690881  0.52663910  0.00239080     0.43900
H2423       H  0.33985390  0.43785782  0.98432049     0.37400
H2424       H  0.27437041  0.47156273  0.91847813     0.33900
H2425       H  0.28862316  0.57830387  0.95596819     0.25700
H2426       H  0.22142726  0.47385014  0.97869302     0.31600
H2427       H  0.25315856  0.42420319  0.95535976     0.37500
H2428       H  0.36088657  0.57898850  0.98594211     0.32000
H2429       H  0.41015858  0.50283222  0.97558374     0.30800
H2430       H  0.41592447  0.46315721  0.95025304     0.32500
H2431       H  0.33787921  0.40243884  0.95932778     0.31500
H2432       H  0.33763335  0.54857153  0.02305156     0.35500
H2433       H  0.32309423  0.48590305  0.05890438     0.28200
H2434       H  0.30942120  0.53120945  0.86483786     0.32500
H2435       H  0.29835495  0.40583977  0.90863321     0.35300
H2436       H  0.40667883  0.51029566  0.94739736     0.27900
H2437       H  0.33723772  0.50742130  0.04498119     0.40800
H2438       H  0.22386459  0.53905617  0.94640552     0.30800
H2439       H  0.28511978  0.57485331  0.98480720     0.38500
H2440       H  0.34762514  0.41527335  0.93490322     0.30300
H2441       H  0.21134781  0.48718130  0.95443418     0.30400
H2442       H  0.31713231  0.50349728  0.85833354     0.30600
Zr2443     Zr  0.22932712  0.57672185  0.67005717     2.17500
O2444       O  0.20789892  0.58794846  0.63094769    -0.51700
O2445       O  0.19328754  0.60573413  0.66635283    -0.74900
O2446       O  0.22529696  0.54202424  0.64041509    -0.81700
O2447       O  0.27011409  0.63339626  0.68162692    -0.83500
O2448       O  0.22053355  0.50613663  0.66307364    -0.79100
O2449       O  0.25793538  0.60656215  0.65120489    -0.90700
O2450       O  0.17677560  0.61367556  0.70452895    -0.76700
O2451       O  0.20210511  0.55693265  0.69960410    -0.86200
O2452       O  0.22743842  0.60559363  0.70376869    -0.85900
O2453       O  0.25014016  0.53772443  0.68206322    -0.72600
O2454       O  0.27179443  0.58312670  0.68465313    -0.84700
Zr2455     Zr  0.26146139  0.55223726  0.75869470     2.26400
Zr2456     Zr  0.22255246  0.51774178  0.71182651     2.06300
Zr2457     Zr  0.26844637  0.61013452  0.72020546     2.10000
Zr2458     Zr  0.20012756  0.58695324  0.73292434     1.78800
O2459       O  0.30353990  0.63818908  0.71379954    -0.93600
O2460       O  0.15717380  0.57191300  0.73232690    -0.41400
O2461       O  0.24154909  0.59190849  0.75050549    -0.78000
O2462       O  0.21808872  0.54785103  0.74430321    -0.96700
O2463       O  0.26228009  0.52869250  0.72366587    -0.90000
O2464       O  0.28950966  0.57173345  0.73045038    -0.92800
C2465       C  0.17809932  0.61738599  0.68097421     1.00900
C2466       C  0.26816447  0.62684435  0.65879269     1.13900
C2467       C  0.22314000  0.51809242  0.64120613     1.04600
O2468       O  0.17739907  0.51148969  0.71134846    -0.95000
O2469       O  0.22512527  0.50172687  0.76072537    -0.90700
O2470       O  0.23175029  0.53531400  0.78513995    -0.83900
C2471       C  0.22679942  0.51246823  0.78344118     1.11300
O2472       O  0.30512654  0.55761423  0.65518391    -0.97000
Zr2473     Zr  0.29125132  0.54436265  0.69648136     1.88900
O2474       O  0.28466205  0.51191386  0.75795361    -0.73600
O2475       O  0.22433157  0.47215620  0.71139503    -0.52900
O2476       O  0.30426495  0.51045988  0.66889619    -0.97500
O2477       O  0.33514655  0.55430153  0.70482323    -0.54800
O2478       O  0.30563835  0.50973223  0.72117765    -0.74100
C2479       C  0.29906686  0.50060630  0.74221569     0.98200
O2480       O  0.27333197  0.54836220  0.80274907    -0.62900
O2481       O  0.24639920  0.64540096  0.73902304    -0.57700
O2482       O  0.28999458  0.57910984  0.78084355    -0.94400
O2483       O  0.29603840  0.61294247  0.75610276    -0.92900
O2484       O  0.19545102  0.62662375  0.75470938    -0.93200
O2485       O  0.18483223  0.58329031  0.77558190    -0.92000
C2486       C  0.30110646  0.59943121  0.77544216     1.17100
H2487       H  0.22221638  0.62220220  0.69867598     0.33000
H2488       H  0.20454441  0.54192126  0.75457497     0.43900
H2489       H  0.30624146  0.57338705  0.73696561     0.37400
H2490       H  0.25609847  0.52746264  0.66872416     0.33900
H2491       H  0.15444812  0.56598906  0.71505024     0.25700
H2492       H  0.20735927  0.46692272  0.71654073     0.31600
H2493       H  0.28902768  0.50073203  0.66535488     0.37500
H2494       H  0.19543038  0.63961487  0.74145167     0.32000
H2495       H  0.25220717  0.64544359  0.75661727     0.30800
H2496       H  0.29925957  0.65342082  0.72339767     0.32500
H2497       H  0.33867471  0.54876290  0.72219075     0.31500
H2498       H  0.20013202  0.58463914  0.78600598     0.35500
H2499       H  0.26005134  0.55638982  0.81299854     0.28200
H2500       H  0.19531306  0.57492533  0.62754033     0.32500
H2501       H  0.32322409  0.56112316  0.65702846     0.35300
H2502       H  0.25399713  0.66041115  0.73142792     0.27900
H2503       H  0.27319340  0.53036880  0.80719716     0.40800
H2504       H  0.17389719  0.50300838  0.72744100     0.30800
H2505       H  0.15759376  0.55645900  0.74260793     0.38500
H2506       H  0.33598020  0.57277911  0.70512387     0.30300
H2507       H  0.22536691  0.46757596  0.69352676     0.30400
H2508       H  0.22033924  0.58646383  0.61741118     0.30600
Zr2509     Zr  0.17732434  0.52025151  0.51260019     2.17500
O2510       O  0.16621372  0.51808491  0.55689747    -0.51700
O2511       O  0.21333849  0.54320168  0.52786466    -0.74900
O2512       O  0.19406516  0.48552251  0.53351900    -0.81700
O2513       O  0.11906571  0.56041209  0.50878529    -0.83500
O2514       O  0.23027383  0.48799514  0.51259848    -0.79100
O2515       O  0.14915686  0.54647253  0.53564022    -0.90700
O2516       O  0.22401022  0.57054170  0.49716330    -0.76700
O2517       O  0.21205724  0.52718998  0.48539274    -0.86200
O2518       O  0.16627361  0.55570131  0.48784757    -0.85900
O2519       O  0.18365391  0.48163385  0.48942233    -0.72600
O2520       O  0.13882736  0.50823654  0.49358640    -0.84700
Zr2521     Zr  0.16719853  0.51277930  0.41647385     2.26400
Zr2522     Zr  0.21881100  0.48940182  0.46281274     2.06300
Zr2523     Zr  0.12844755  0.54351487  0.46771450     2.10000
Zr2524     Zr  0.19993681  0.56188719  0.46007460     1.78800
O2525       O  0.08565924  0.52916570  0.47329475    -0.93600
O2526       O  0.24271117  0.56876180  0.44592978    -0.41400
O2527       O  0.16200825  0.55113233  0.43882939    -0.78000
O2528       O  0.20576132  0.52459773  0.43696581    -0.96700
O2529       O  0.18052706  0.47770402  0.44140216    -0.90000
O2530       O  0.13298912  0.50593729  0.44388925    -0.92800
C2531       C  0.22690659  0.56061774  0.51882255     1.00900
C2532       C  0.13001861  0.55999203  0.53015906     1.13900
C2533       C  0.21759520  0.48545037  0.53413070     1.04600
O2534       O  0.26449123  0.49052894  0.46247714    -0.95000
O2535       O  0.23356810  0.48880613  0.41487756    -0.90700
O2536       O  0.20243701  0.50441214  0.38979225    -0.83900
C2537       C  0.22468010  0.49566807  0.39240328     1.11300
O2538       O  0.14200842  0.44827304  0.50831633    -0.97000
Zr2539     Zr  0.14587597  0.47128398  0.46907554     1.88900
O2540       O  0.14223133  0.47863447  0.39998238    -0.73600
O2541       O  0.22377909  0.44408446  0.46235275    -0.52900
O2542       O  0.15988757  0.42782099  0.46802247    -0.97500
O2543       O  0.10138346  0.46668752  0.47802680    -0.54800
O2544       O  0.12975758  0.45326947  0.43150252    -0.74100
C2545       C  0.13075149  0.45946450  0.40847541     0.98200
O2546       O  0.17108783  0.51859259  0.37127890    -0.62900
O2547       O  0.11457417  0.58704940  0.46446748    -0.57700
O2548       O  0.13795503  0.54388694  0.39963344    -0.94400
O2549       O  0.10939607  0.55579513  0.42871453    -0.92900
O2550       O  0.18641076  0.60451845  0.46930694    -0.93200
O2551       O  0.20354189  0.58772011  0.42265912    -0.92000
C2552       C  0.11797503  0.55550978  0.40646841     1.17100
H2553       H  0.16431839  0.57072828  0.49757703     0.33000
H2554       H  0.21852586  0.52931773  0.42521646     0.43900
H2555       H  0.11761593  0.50273150  0.43492510     0.37400
H2556       H  0.18768590  0.46618151  0.49803770     0.33900
H2557       H  0.24890726  0.58278448  0.45614081     0.25700
H2558       H  0.22924031  0.44020809  0.44512090     0.31600
H2559       H  0.17385779  0.42755750  0.45587471     0.37500
H2560       H  0.20193060  0.61309096  0.47445000     0.32000
H2561       H  0.09845004  0.58796902  0.47358159     0.30800
H2562       H  0.08631883  0.51866362  0.48858491     0.32500
H2563       H  0.09860093  0.44842946  0.47759774     0.31500
H2564       H  0.20702110  0.57572927  0.40903023     0.35500
H2565       H  0.15459679  0.51416103  0.36409554     0.28200
H2566       H  0.15916511  0.50131016  0.55997333     0.32500
H2567       H  0.13182041  0.45930177  0.51920851     0.35300
H2568       H  0.12650048  0.59649792  0.47489734     0.27900
H2569       H  0.17260462  0.53679982  0.36825086     0.40800
H2570       H  0.27002509  0.47292178  0.46475144     0.30800
H2571       H  0.25221910  0.55392071  0.45205859     0.38500
H2572       H  0.09261771  0.47324440  0.46297170     0.30300
H2573       H  0.23869867  0.44048540  0.47289997     0.30400
H2574       H  0.18215681  0.51844604  0.56643564     0.30600
Zr2575     Zr  0.23644111  0.43167972  0.26357944     2.17500
O2576       O  0.25259093  0.41475417  0.30297976    -0.51700
O2577       O  0.20586025  0.46133106  0.27927223    -0.74900
O2578       O  0.26326648  0.45973487  0.28337935    -0.81700
O2579       O  0.22212917  0.36570088  0.26459612    -0.83500
O2580       O  0.24985862  0.49328157  0.26199249    -0.79100
O2581       O  0.21493303  0.40053592  0.28708283    -0.90700
O2582       O  0.17136270  0.45376250  0.25608705    -0.76700
O2583       O  0.21803718  0.46354812  0.23725820    -0.86200
O2584       O  0.20328140  0.41230929  0.24125816    -0.85900
O2585       O  0.27020352  0.44767918  0.23815229    -0.72600
O2586       O  0.25717887  0.39812830  0.24299175    -0.84700
Zr2587     Zr  0.24022555  0.42319167  0.16783920     2.26400
Zr2588     Zr  0.25111599  0.47983407  0.21245607     2.06300
Zr2589     Zr  0.22375446  0.37867249  0.22074799     2.10000
Zr2590     Zr  0.18605385  0.44308998  0.21440853     1.78800
O2591       O  0.24792970  0.33979630  0.21883910    -0.93600
O2592       O  0.16361509  0.48231148  0.20597245    -0.41400
O2593       O  0.20577649  0.40931338  0.19269375    -0.78000
O2594       O  0.21950374  0.45794245  0.18874109    -0.96700
O2595       O  0.27160337  0.44581732  0.18992945    -0.90000
O2596       O  0.25746425  0.39212479  0.19483881    -0.92800
C2597       C  0.18310614  0.46583716  0.27296046     1.00900
C2598       C  0.21245351  0.37714723  0.28339443     1.13900
C2599       C  0.25616923  0.48223719  0.28388267     1.04600
O2600       O  0.23060059  0.52064648  0.20873970    -0.95000
O2601       O  0.25020346  0.49214153  0.16349841    -0.90700
O2602       O  0.24189193  0.45798791  0.13976197    -0.83900
C2603       C  0.24594074  0.48132770  0.14136778     1.11300
O2604       O  0.31857008  0.41905405  0.25115769    -0.97000
Zr2605     Zr  0.28948644  0.41414441  0.21638831     1.88900
O2606       O  0.27712605  0.40206562  0.14923682    -0.73600
O2607       O  0.29117446  0.50119560  0.21381320    -0.52900
O2608       O  0.32529857  0.43876646  0.20320280    -0.97500
O2609       O  0.30810004  0.37473883  0.23072758    -0.54800
O2610       O  0.30607105  0.39523504  0.17947781    -0.74100
C2611       C  0.29780385  0.39219135  0.15732023     0.98200
O2612       O  0.22756087  0.42571357  0.12396454    -0.62900
O2613       O  0.18534682  0.35655267  0.23093449    -0.57700
O2614       O  0.21385253  0.38944324  0.15409917    -0.94400
O2615       O  0.20780799  0.35925970  0.18311658    -0.92900
O2616       O  0.15005398  0.41627458  0.22117602    -0.93200
O2617       O  0.15929420  0.44259453  0.17741262    -0.92000
C2618       C  0.20521153  0.36828973  0.16104723     1.17100
H2619       H  0.18957997  0.40647985  0.25139821     0.33000
H2620       H  0.21179212  0.46906746  0.17661456     0.43900
H2621       H  0.26340646  0.37734371  0.18635891     0.37400
H2622       H  0.28391882  0.45519840  0.24703282     0.33900
H2623       H  0.16253573  0.49091838  0.22223896     0.25700
H2624       H  0.28681149  0.51897147  0.21677965     0.31600
H2625       H  0.32088361  0.44523260  0.18635306     0.37500
H2626       H  0.13662147  0.42765306  0.22725167     0.32000
H2627       H  0.17202028  0.36504287  0.22098382     0.30800
H2628       H  0.23540189  0.32683422  0.21508784     0.32500
H2629       H  0.32290134  0.37197023  0.21990610     0.31500
H2630       H  0.17104098  0.44379507  0.16316704     0.35500
H2631       H  0.23281928  0.40964510  0.11641666     0.28200
H2632       H  0.24620058  0.42602128  0.31616901     0.32500
H2633       H  0.30979468  0.41185582  0.26575614     0.35300
H2634       H  0.18722206  0.33978790  0.22337851     0.27900
H2635       H  0.20896344  0.42550959  0.12374469     0.40800
H2636       H  0.24410170  0.53292833  0.21115048     0.30800
H2637       H  0.17537759  0.49247506  0.19602595     0.38500
H2638       H  0.29602021  0.36188831  0.22543891     0.30300
H2639       H  0.29904799  0.49549488  0.22967277     0.30400
H2640       H  0.27099249  0.41703690  0.30268533     0.30600
Zr2641     Zr  0.95972307  0.14124670  0.29006039     2.17500
O2642       O  0.95591121  0.18653734  0.28477963    -0.51700
O2643       O  0.99096343  0.14141067  0.32259232    -0.74900
O2644       O  0.93766385  0.16034799  0.32403886    -0.81700
O2645       O  0.99763732  0.14149078  0.23477226    -0.83500
O2646       O  0.90293081  0.13793049  0.33343007    -0.79100
O2647       O  0.99122466  0.16471892  0.26961582    -0.90700
O2648       O  0.99607092  0.10233167  0.33854920    -0.76700
O2649       O  0.94146681  0.11179010  0.31729999    -0.86200
O2650       O  0.98751350  0.10591575  0.28687346    -0.85900
O2651       O  0.91803018  0.13613272  0.27416703    -0.72600
O2652       O  0.95989525  0.12946822  0.24708510    -0.84700
Zr2653     Zr  0.92732495  0.05667379  0.25721681     2.26400
Zr2654     Zr  0.90003865  0.10529811  0.30141570     2.06300
Zr2655     Zr  0.98732117  0.09375120  0.24383873     2.10000
Zr2656     Zr  0.96833917  0.07640460  0.31475539     1.78800
O2657       O  0.99403332  0.08913554  0.19908129    -0.93600
O2658       O  0.95089565  0.07500776  0.35676037    -0.41400
O2659       O  0.96831141  0.06536841  0.27204222    -0.78000
O2660       O  0.92629502  0.06818024  0.30070724    -0.96700
O2661       O  0.90104412  0.09268467  0.25856929    -0.90000
O2662       O  0.94587062  0.08569256  0.22856394    -0.92800
C2663       C  0.00152839  0.12548157  0.33730092     1.00900
C2664       C  0.99817921  0.16309463  0.24697468     1.13900
C2665       C  0.91832994  0.15590000  0.33723463     1.04600
O2666       O  0.88348893  0.08067690  0.33589510    -0.95000
O2667       O  0.86663418  0.08173715  0.28089020    -0.90700
O2668       O  0.88903097  0.04668166  0.27872837    -0.83900
C2669       C  0.86874669  0.05877006  0.27446613     1.11300
O2670       O  0.90680027  0.16438033  0.21905105    -0.97000
Zr2671     Zr  0.91890308  0.12195847  0.23136581     1.88900
O2672       O  0.90961522  0.05369314  0.21579951    -0.73600
O2673       O  0.86324155  0.13269964  0.30308002    -0.52900
O2674       O  0.87431408  0.13234015  0.22820411    -0.97500
O2675       O  0.93922158  0.13489469  0.19276765    -0.54800
O2676       O  0.90090730  0.09309279  0.20231007    -0.74100
C2677       C  0.90070800  0.06935605  0.19989471     0.98200
O2678       O  0.92198784  0.01157773  0.25208471    -0.62900
O2679       O  0.03293770  0.09097488  0.24580764    -0.57700
O2680       O  0.95847236  0.02463556  0.25608235    -0.94400
O2681       O  0.99433149  0.04412287  0.24433713    -0.92900
O2682       O  0.00815825  0.05422218  0.32030097    -0.93200
O2683       O  0.96817808  0.03147636  0.32262790    -0.92000
C2684       C  0.98148858  0.02357645  0.24999856     1.17100
H2685       H  0.00461846  0.10957532  0.29136645     0.33000
H2686       H  0.91943825  0.05510656  0.31106118     0.43900
H2687       H  0.94737134  0.07946558  0.21175693     0.37400
H2688       H  0.90868802  0.15167477  0.27541006     0.33900
H2689       H  0.93451665  0.06670172  0.35489140     0.25700
H2690       H  0.85929780  0.13655621  0.28536564     0.31600
H2691       H  0.86550744  0.11633443  0.23067562     0.37500
H2692       H  0.01894182  0.06075654  0.30678384     0.32000
H2693       H  0.03871315  0.10723954  0.23921789     0.30800
H2694       H  0.00790180  0.07672435  0.19774437     0.32500
H2695       H  0.92984754  0.12645698  0.17930106     0.31500
H2696       H  0.95263290  0.02833997  0.33214559     0.35500
H2697       H  0.90773561  0.00654870  0.26271002     0.28200
H2698       H  0.96185211  0.19392990  0.30063009     0.32500
H2699       H  0.90340057  0.17326694  0.23488871     0.35300
H2700       H  0.03707238  0.09134465  0.26384466     0.27900
H2701       H  0.91629959  0.00890362  0.23468929     0.40800
H2702       H  0.88899565  0.08953073  0.35110627     0.30800
H2703       H  0.96156528  0.06270833  0.36591087     0.38500
H2704       H  0.95577527  0.12628025  0.19311510     0.30300
H2705       H  0.84946084  0.12178215  0.30866021     0.30400
H2706       H  0.93766151  0.19020339  0.28424595     0.30600
Zr2707     Zr  0.01379615  0.80898950  0.18912560     2.17500
O2708       O  0.03682422  0.76921025  0.18707045    -0.51700
O2709       O  0.05534933  0.82169875  0.20091888    -0.74900
O2710       O  0.01874974  0.79334256  0.14644418    -0.81700
O2711       O  0.98027522  0.79280161  0.24655584    -0.83500
O2712       O  0.99894195  0.81938460  0.11928849    -0.79100
O2713       O  0.00554217  0.77508323  0.21724149    -0.90700
O2714       O  0.06626963  0.85621136  0.18197881    -0.76700
O2715       O  0.02273516  0.84650936  0.16700565    -0.86200
O2716       O  0.02066809  0.83907611  0.22183518    -0.85900
O2717       O  0.97691158  0.81726112  0.16417787    -0.72600
O2718       O  0.97553736  0.81307662  0.21206220    -0.84700
Zr2719     Zr  0.95448145  0.89000356  0.19592394     2.26400
Zr2720     Zr  0.98621971  0.85615820  0.14289174     2.06300
Zr2721     Zr  0.98195916  0.84300757  0.24412895     2.10000
Zr2722     Zr  0.02993651  0.87702717  0.19876462     1.78800
O2723       O  0.95052637  0.84473103  0.27701172    -0.93600
O2724       O  0.05028937  0.90791346  0.17211877    -0.41400
O2725       O  0.99085754  0.87817405  0.21920746    -0.78000
O2726       O  0.99348551  0.88837923  0.17320904    -0.96700
O2727       O  0.94733248  0.85928045  0.16532249    -0.90000
O2728       O  0.94485245  0.85321936  0.21978766    -0.92800
C2729       C  0.06888532  0.83278139  0.18517030     1.00900
C2730       C  0.99015741  0.77273538  0.23524132     1.13900
C2731       C  0.01075123  0.79893671  0.12436558     1.04600
O2732       O  0.01717103  0.88589785  0.12814219    -0.95000
O2733       O  0.94852492  0.87789408  0.12884235    -0.90700
O2734       O  0.94590431  0.90965147  0.15594074    -0.83900
C2735       C  0.93983712  0.89922528  0.13544748     1.11300
O2736       O  0.91665199  0.78344616  0.18158380    -0.97000
Zr2737     Zr  0.93901602  0.82242622  0.18794762     1.88900
O2738       O  0.90948507  0.88566882  0.20002053    -0.73600
O2739       O  0.98382105  0.86054968  0.09748977    -0.52900
O2740       O  0.92693814  0.81086879  0.14561351    -0.97500
O2741       O  0.92026738  0.79882582  0.22213531    -0.54800
O2742       O  0.90069221  0.84650002  0.18757290    -0.74100
C2743       C  0.89408866  0.86849153  0.19415783     0.98200
O2744       O  0.94623144  0.93495499  0.19866748    -0.62900
O2745       O  0.00795789  0.83682367  0.28122028    -0.57700
O2746       O  0.95740675  0.91400705  0.23343526    -0.94400
O2747       O  0.98865894  0.89209869  0.25227233    -0.92900
O2748       O  0.05678535  0.87466547  0.23574725    -0.93200
O2749       O  0.03585879  0.91741021  0.21856713    -0.92000
C2750       C  0.97707416  0.91382656  0.24691628     1.17100
H2751       H  0.03305340  0.83441824  0.23432250     0.33000
H2752       H  0.99580622  0.90442447  0.16525015     0.43900
H2753       H  0.93039216  0.85527125  0.23045237     0.37400
H2754       H  0.97347407  0.80352226  0.15317053     0.33900
H2755       H  0.05648390  0.89850808  0.15746039     0.25700
H2756       H  0.96647075  0.85619571  0.09274029     0.31600
H2757       H  0.91374560  0.82321627  0.14081313     0.37500
H2758       H  0.07409597  0.87341497  0.22916677     0.32000
H2759       H  0.01889280  0.82227806  0.27725632     0.30800
H2760       H  0.95514308  0.85947406  0.28705512     0.32500
H2761       H  0.90975544  0.81122274  0.23112372     0.31500
H2762       H  0.05417178  0.92030674  0.21873754     0.35500
H2763       H  0.95845814  0.94295671  0.18735927     0.28200
H2764       H  0.05104849  0.77209463  0.17564874     0.32500
H2765       H  0.89882136  0.78844559  0.17919457     0.35300
H2766       H  0.01937321  0.85127743  0.28121237     0.27900
H2767       H  0.92973165  0.93792722  0.19057349     0.40800
H2768       H  0.03129651  0.87540492  0.12208185     0.30800
H2769       H  0.03672688  0.91889240  0.16545798     0.38500
H2770       H  0.93411485  0.79479219  0.23386440     0.30300
H2771       H  0.98478779  0.87869040  0.09390501     0.30400
H2772       H  0.02595845  0.75752111  0.17787914     0.30600
Zr2773     Zr  0.05957473  0.55879909  0.26295365     2.17500
O2774       O  0.05643684  0.52248340  0.29065894    -0.51700
O2775       O  0.06478969  0.57051470  0.30624375    -0.74900
O2776       O  0.10064284  0.54109046  0.26338212    -0.81700
O2777       O  0.99680419  0.54244193  0.23858977    -0.83500
O2778       O  0.12795926  0.56801737  0.24609350    -0.79100
O2779       O  0.03126710  0.52423948  0.25657308    -0.90700
O2780       O  0.07342541  0.61173745  0.30815051    -0.76700
O2781       O  0.08653540  0.59367287  0.26049107    -0.86200
O2782       O  0.03215391  0.59300411  0.27221699    -0.85900
O2783       O  0.07732311  0.55806325  0.22146993    -0.72600
O2784       O  0.02989274  0.56158960  0.23071860    -0.84700
Zr2785     Zr  0.04236626  0.63024865  0.19602031     2.26400
Zr2786     Zr  0.10225140  0.59493502  0.21869629     2.06300
Zr2787     Zr  0.00014885  0.59235346  0.24028584     2.10000
Zr2788     Zr  0.05984236  0.62830783  0.26842455     1.78800
O2789       O  0.95974863  0.59377019  0.21896257    -0.93600
O2790       O  0.05024877  0.67281825  0.26484120    -0.41400
O2791       O  0.02784657  0.62641670  0.23770543    -0.78000
O2792       O  0.07616626  0.63109589  0.22645493    -0.96700
O2793       O  0.07009141  0.59635416  0.18755798    -0.90000
O2794       O  0.01593922  0.59433363  0.19811778    -0.92800
C2795       C  0.07153209  0.59006500  0.31802162     1.00900
C2796       C  0.01005545  0.52213051  0.24550960     1.13900
C2797       C  0.12285192  0.54864080  0.25939225     1.04600
O2798       O  0.13721100  0.62091161  0.23118173    -0.95000
O2799       O  0.11314927  0.62039703  0.18252501    -0.90700
O2800       O  0.07909659  0.64532652  0.17418922    -0.83900
C2801       C  0.10158769  0.63762454  0.17001471     1.11300
O2802       O  0.05705625  0.51703146  0.18159182    -0.97000
Zr2803     Zr  0.04532095  0.56044897  0.18955804     1.88900
O2804       O  0.02514051  0.61764096  0.15544349    -0.73600
O2805       O  0.12598253  0.56875557  0.18979355    -0.52900
O2806       O  0.07799673  0.55663228  0.15798600    -0.97500
O2807       O  0.01064243  0.53142074  0.18614212    -0.54800
O2808       O  0.02865488  0.57561298  0.15096256    -0.74100
C2809       C  0.02256825  0.59730350  0.14298471     0.98200
O2810       O  0.03472375  0.66821906  0.17133467    -0.62900
O2811       O  0.97484056  0.58614016  0.27758649    -0.57700
O2812       O  0.01411933  0.66157409  0.21534955    -0.94400
O2813       O  0.98850421  0.64068331  0.24195549    -0.92900
O2814       O  0.03574135  0.64496598  0.30325971    -0.93200
O2815       O  0.09993988  0.64889500  0.27453097    -0.92000
C2816       C  0.99630342  0.66186904  0.23160731     1.17100
H2817       H  0.02501916  0.59155060  0.28870496     0.33000
H2818       H  0.08576682  0.64617905  0.22453322     0.43900
H2819       H  0.00165073  0.59497197  0.18702159     0.37400
H2820       H  0.08748095  0.54323064  0.21889280     0.33900
H2821       H  0.06275119  0.68121752  0.27550297     0.25700
H2822       H  0.14301880  0.57589003  0.18957163     0.31600
H2823       H  0.07013729  0.54772572  0.14386981     0.37500
H2824       H  0.02295351  0.63222056  0.30693990     0.32000
H2825       H  0.98256290  0.57140209  0.28604394     0.30800
H2826       H  0.95986666  0.60964579  0.20934062     0.32500
H2827       H  0.01069285  0.52566569  0.16862225     0.31500
H2828       H  0.10957443  0.63778271  0.28602227     0.35500
H2829       H  0.01630931  0.66957244  0.16900351     0.28200
H2830       H  0.04310575  0.52680310  0.30281364     0.32500
H2831       H  0.07471481  0.51516064  0.18714984     0.35300
H2832       H  0.97886216  0.60042502  0.28850956     0.27900
H2833       H  0.03927747  0.68250299  0.18205260     0.40800
H2834       H  0.13805699  0.61911909  0.24959058     0.30800
H2835       H  0.05497085  0.67738170  0.24754573     0.38500
H2836       H  0.99534220  0.54200239  0.18752935     0.30300
H2837       H  0.12796734  0.55229820  0.19817363     0.30400
H2838       H  0.07205981  0.52212437  0.30070686     0.30600
Zr2839     Zr  0.99217800  0.30735074  0.29815920     2.17500
O2840       O  0.96510415  0.27141153  0.30407306    -0.51700
O2841       O  0.94952336  0.32374544  0.30121354    -0.74900
O2842       O  0.99721093  0.28907929  0.33956439    -0.81700
O2843       O  0.01141733  0.29303534  0.23222677    -0.83500
O2844       O  0.00431118  0.32286118  0.36283626    -0.79100
O2845       O  0.99511535  0.27445973  0.26672595    -0.90700
O2846       O  0.94471402  0.36340722  0.31068224    -0.76700
O2847       O  0.99379144  0.34430212  0.32312225    -0.86200
O2848       O  0.98161668  0.34134955  0.26995172    -0.85900
O2849       O  0.03453232  0.30895110  0.31447068    -0.72600
O2850       O  0.02417325  0.30884245  0.26702206    -0.84700
Zr2851     Zr  0.05721806  0.38145468  0.28286169     2.26400
Zr2852     Zr  0.03535239  0.34594778  0.33961633     2.06300
Zr2853     Zr  0.01450286  0.34241152  0.23933537     2.10000
Zr2854     Zr  0.98443607  0.37834350  0.29551432     1.78800
O2855       O  0.03718991  0.34302971  0.19988470    -0.93600
O2856       O  0.95713981  0.39419663  0.26222659    -0.41400
O2857       O  0.01787613  0.37126448  0.26993666    -0.78000
O2858       O  0.02523046  0.38204675  0.31458676    -0.96700
O2859       O  0.06780167  0.34695873  0.30899277    -0.90000
O2860       O  0.05730376  0.34684458  0.25469345    -0.92800
C2861       C  0.94285713  0.34051589  0.31682043     1.00900
C2862       C  0.00396723  0.27269665  0.24456240     1.13900
C2863       C  0.00082892  0.29936193  0.36078115     1.04600
O2864       O  0.02762641  0.36531307  0.37998554    -0.95000
O2865       O  0.06372390  0.37871429  0.35249102    -0.90700
O2866       O  0.06918904  0.40489712  0.31947369    -0.83900
C2867       C  0.07213076  0.39880946  0.34247796     1.11300
O2868       O  0.09317879  0.27552276  0.27545419    -0.97000
Zr2869     Zr  0.06587729  0.31186734  0.28211575     1.88900
O2870       O  0.10234061  0.37124346  0.28307092    -0.73600
O2871       O  0.06380600  0.31678683  0.36103182    -0.52900
O2872       O  0.07603957  0.27568388  0.30852945    -0.97500
O2873       O  0.07151727  0.30037018  0.23826020    -0.54800
O2874       O  0.10582308  0.32984571  0.29039073    -0.74100
C2875       C  0.11528023  0.35141577  0.28839363     0.98200
O2876       O  0.07868545  0.41578620  0.26216796    -0.62900
O2877       O  0.97747037  0.34292444  0.21254900    -0.57700
O2878       O  0.03737570  0.41266430  0.25607104    -0.94400
O2879       O  0.00982193  0.39122488  0.23170461    -0.92900
O2880       O  0.97435933  0.40396725  0.33170940    -0.93200
O2881       O  0.98822131  0.42343477  0.29192292    -0.92000
C2882       C  0.01966601  0.41244397  0.23978418     1.17100
H2883       H  0.96546765  0.33975394  0.26190964     0.33000
H2884       H  0.02503338  0.39701835  0.32456319     0.43900
H2885       H  0.06950731  0.34922301  0.24160655     0.37400
H2886       H  0.03833053  0.29449549  0.32470371     0.33900
H2887       H  0.96453612  0.38780993  0.24655415     0.25700
H2888       H  0.08009887  0.31880688  0.35247996     0.31600
H2889       H  0.08468780  0.28261587  0.32331257     0.37500
H2890       H  0.95696071  0.41007090  0.32878214     0.32000
H2891       H  0.98386984  0.34688119  0.19565611     0.30800
H2892       H  0.03266353  0.35936694  0.19220005     0.32500
H2893       H  0.08633541  0.30962758  0.23231752     0.31500
H2894       H  0.00591323  0.42709497  0.29601940     0.35500
H2895       H  0.09094295  0.42180635  0.27463570     0.28200
H2896       H  0.95452458  0.27021543  0.28888337     0.32500
H2897       H  0.10647801  0.28085946  0.26382051     0.35300
H2898       H  0.97247020  0.32519151  0.21160203     0.27900
H2899       H  0.08907797  0.40779252  0.24906862     0.40800
H2900       H  0.03607858  0.35425831  0.39239691     0.30800
H2901       H  0.94140110  0.38475516  0.26409403     0.38500
H2902       H  0.05716997  0.30745085  0.22871770     0.30300
H2903       H  0.06647670  0.32402101  0.37778762     0.30400
H2904       H  0.97596053  0.25623607  0.30414561     0.30600
Zr2905     Zr  0.94234531  0.26665224  0.46202309     2.17500
O2906       O  0.98788777  0.26895531  0.45785141    -0.51700
O2907       O  0.93569721  0.23243370  0.43202718    -0.74900
O2908       O  0.96902829  0.23615956  0.48093171    -0.81700
O2909       O  0.94661826  0.32948140  0.43749091    -0.83500
O2910       O  0.94610838  0.22332848  0.51463062    -0.79100
O2911       O  0.95577491  0.29043180  0.42561244    -0.90700
O2912       O  0.90276132  0.24715569  0.41032995    -0.76700
O2913       O  0.90652823  0.24052118  0.46500826    -0.86200
O2914       O  0.91130061  0.28947219  0.43921689    -0.85900
O2915       O  0.93186609  0.26573101  0.50598360    -0.72600
O2916       O  0.93450763  0.30274794  0.48503645    -0.84700
Zr2917     Zr  0.85786801  0.29970171  0.50430473     2.26400
Zr2918     Zr  0.89697744  0.23745598  0.50924442     2.06300
Zr2919     Zr  0.90835952  0.32743839  0.46167012     2.10000
Zr2920     Zr  0.87605235  0.26470039  0.44143545     1.78800
O2921       O  0.93432428  0.36293762  0.47248836    -0.93600
O2922       O  0.85844335  0.22333276  0.43569526    -0.41400
O2923       O  0.86991206  0.30433790  0.46124703    -0.78000
O2924       O  0.86636101  0.26044168  0.48382543    -0.96700
O2925       O  0.88780269  0.27712904  0.52973449    -0.90000
O2926       O  0.89403570  0.32557731  0.50392706    -0.92800
C2927       C  0.92055058  0.23137278  0.41332295     1.00900
C2928       C  0.95298887  0.31378347  0.42073988     1.13900
C2929       C  0.96807506  0.22652092  0.50265116     1.04600
O2930       O  0.89501134  0.19292706  0.50058360    -0.95000
O2931       O  0.84738020  0.22982669  0.51504738    -0.90700
O2932       O  0.82680098  0.26761121  0.51340474    -0.83900
C2933       C  0.82618683  0.24364983  0.51485326     1.11300
O2934       O  0.95941737  0.30585481  0.55577892    -0.97000
Zr2935     Zr  0.92382009  0.30296351  0.52729987     1.88900
O2936       O  0.85872838  0.31967703  0.54534527    -0.73600
O2937       O  0.89527692  0.22596119  0.55331079    -0.52900
O2938       O  0.92333535  0.27358961  0.56238711    -0.97500
O2939       O  0.95467351  0.33619436  0.52764302    -0.54800
O2940       O  0.89870195  0.33108657  0.55227681    -0.74100
C2941       C  0.87516243  0.33311039  0.55634958     0.98200
O2942       O  0.81450108  0.31506160  0.50752032    -0.62900
O2943       O  0.89252610  0.34726045  0.42351463    -0.57700
O2944       O  0.84421232  0.33659374  0.48042841    -0.94400
O2945       O  0.87892558  0.35897374  0.47209050    -0.92900
O2946       O  0.86755833  0.28696987  0.40236584    -0.93200
O2947       O  0.83256363  0.26774803  0.42776085    -0.92000
C2948       C  0.85535494  0.35661081  0.47341040     1.17100
H2949       H  0.91285528  0.29225285  0.42151892     0.33000
H2950       H  0.85163955  0.25134279  0.47959403     0.43900
H2951       H  0.89118391  0.34212702  0.51048314     0.37400
H2952       H  0.94634495  0.26328461  0.51628267     0.33900
H2953       H  0.85815834  0.22093133  0.41736149     0.25700
H2954       H  0.87785769  0.23002773  0.55841628     0.31600
H2955       H  0.93579675  0.26031340  0.55846690     0.37500
H2956       H  0.86479167  0.27369985  0.38986705     0.32000
H2957       H  0.90617261  0.34561445  0.41114568     0.30800
H2958       H  0.92509673  0.37171351  0.48592946     0.32500
H2959       H  0.94485615  0.35162452  0.52393925     0.31500
H2960       H  0.82787027  0.28560809  0.42978281     0.35500
H2961       H  0.80521796  0.30791443  0.49327698     0.28200
H2962       H  0.99185020  0.28690070  0.45599299     0.32500
H2963       H  0.95228784  0.31228801  0.57161202     0.35300
H2964       H  0.87935492  0.33592673  0.41741231     0.27900
H2965       H  0.80699814  0.30741762  0.52257929     0.40800
H2966       H  0.88069401  0.19137903  0.48888757     0.30800
H2967       H  0.87161466  0.21154962  0.44178386     0.38500
H2968       H  0.96507901  0.33344241  0.51259151     0.30300
H2969       H  0.89618463  0.20746515  0.55348231     0.30400
H2970       H  0.99177188  0.26138517  0.44144797     0.30600
Zr2971     Zr  0.59552676  0.29556145  0.54802229     2.17500
O2972       O  0.56850691  0.32823436  0.53009590    -0.51700
O2973       O  0.56520833  0.26851264  0.56710666    -0.74900
O2974       O  0.57052718  0.27967657  0.51617434    -0.81700
O2975       O  0.60077888  0.33359371  0.60640364    -0.83500
O2976       O  0.59787856  0.26029154  0.48956478    -0.79100
O2977       O  0.57257251  0.32030560  0.57803154    -0.90700
O2978       O  0.58796455  0.23668284  0.58457608    -0.76700
O2979       O  0.61439437  0.25506763  0.54193132    -0.86200
O2980       O  0.61338910  0.28539540  0.58716546    -0.85900
O2981       O  0.62425556  0.29836825  0.51337012    -0.72600
O2982       O  0.62321798  0.32920064  0.55505381    -0.84700
Zr2983     Zr  0.69016360  0.28362857  0.55915104     2.26400
Zr2984     Zr  0.64491700  0.25807085  0.50883844     2.06300
Zr2985     Zr  0.64174588  0.31854652  0.59448364     2.10000
Zr2986     Zr  0.63231905  0.24550461  0.58155895     1.78800
O2987       O  0.64427518  0.36310979  0.60289068    -0.93600
O2988       O  0.62938670  0.20227588  0.56794401    -0.41400
O2989       O  0.66100359  0.27814784  0.59201407    -0.78000
O2990       O  0.66310833  0.24915984  0.54940958    -0.96700
O2991       O  0.67306296  0.29135841  0.51828442    -0.90000
O2992       O  0.67120569  0.32372993  0.56154800    -0.92800
C2993       C  0.56720253  0.24775805  0.57892472     1.00900
C2994       C  0.57840131  0.33191184  0.59805044     1.13900
C2995       C  0.57489617  0.26885010  0.49567822     1.04600
O2996       O  0.63925460  0.21395457  0.49983324    -0.95000
O2997       O  0.69384388  0.24302085  0.50586202    -0.90700
O2998       O  0.71716352  0.25575670  0.53917644    -0.83900
C2999       C  0.71544687  0.24384259  0.51897369     1.11300
O3000       O  0.62157251  0.35700244  0.50013436    -0.97000
Zr3001     Zr  0.65296886  0.33108516  0.52153836     1.88900
O3002       O  0.72021358  0.30637317  0.53467290    -0.73600
O3003       O  0.65312188  0.26402195  0.46448928    -0.52900
O3004       O  0.65686534  0.33406590  0.47623936    -0.97500
O3005       O  0.65685446  0.37509746  0.53230507    -0.54800
O3006       O  0.69736814  0.33625139  0.51402377    -0.74100
C3007       C  0.71805309  0.32514890  0.51992185     0.98200
O3008       O  0.71607242  0.26058571  0.58920766    -0.62900
O3009       O  0.63744824  0.30902374  0.63881574    -0.57700
O3010       O  0.71203161  0.30619295  0.59125108    -0.94400
O3011       O  0.68194252  0.32573849  0.61379421    -0.92900
O3012       O  0.62225306  0.24176315  0.62577502    -0.93200
O3013       O  0.66270346  0.21848087  0.60300469    -0.92000
C3014       C  0.70488852  0.31997314  0.60942426     1.17100
H3015       H  0.60091537  0.28451901  0.60018353     0.33000
H3016       H  0.67265221  0.23369264  0.54892553     0.43900
H3017       H  0.68325295  0.33653269  0.56521752     0.37400
H3018       H  0.61522916  0.30278807  0.49826664     0.33900
H3019       H  0.61912421  0.19401101  0.58090440     0.25700
H3020       H  0.66038213  0.28091988  0.46330494     0.31600
H3021       H  0.67321723  0.32606289  0.47227458     0.37500
H3022       H  0.63493859  0.25197223  0.63439800     0.32000
H3023       H  0.62059590  0.30164529  0.64049506     0.30800
H3024       H  0.65536705  0.36973190  0.58969023     0.32500
H3025       H  0.67038807  0.37561232  0.54495023     0.31500
H3026       H  0.67349767  0.23002151  0.61247057     0.35500
H3027       H  0.71178843  0.24282294  0.58680840     0.28200
H3028       H  0.55130013  0.32146264  0.53020757     0.32500
H3029       H  0.60844276  0.36019043  0.51280814     0.35300
H3030       H  0.64918639  0.29482449  0.64181595     0.27900
H3031       H  0.73357894  0.26217647  0.58332287     0.40800
H3032       H  0.62210268  0.21034115  0.50578454     0.30800
H3033       H  0.61836962  0.20299907  0.55302332     0.38500
H3034       H  0.64143383  0.37914863  0.54181852     0.30300
H3035       H  0.66735070  0.25251995  0.46088962     0.30400
H3036       H  0.57320301  0.32925293  0.51224890     0.30600
Zr3037     Zr  0.36246433  0.19540013  0.49631964     2.17500
O3038       O  0.32233448  0.17677253  0.48518387    -0.51700
O3039       O  0.36549611  0.16869293  0.45934588    -0.74900
O3040       O  0.32918546  0.22513796  0.48431823    -0.81700
O3041       O  0.38491444  0.14255535  0.53774373    -0.83500
O3042       O  0.34771643  0.26231721  0.47515565    -0.79100
O3043       O  0.34925053  0.16228856  0.52498224    -0.90700
O3044       O  0.40631205  0.15879356  0.45221520    -0.76700
O3045       O  0.39248059  0.21358429  0.46865518    -0.86200
O3046       O  0.39966159  0.17125594  0.50270334    -0.85900
O3047       O  0.36862948  0.23769287  0.51033914    -0.72600
O3048       O  0.37252216  0.19866446  0.54019473    -0.84700
Zr3049     Zr  0.44600854  0.23693050  0.53328208     2.26400
Zr3050     Zr  0.39787798  0.25661771  0.48181957     2.06300
Zr3051     Zr  0.41150543  0.17651514  0.54560495     2.10000
Zr3052     Zr  0.42969294  0.18870109  0.47626456     1.78800
O3053       O  0.39850201  0.17785845  0.58914057    -0.93600
O3054       O  0.43584194  0.20361363  0.43360064    -0.41400
O3055       O  0.44292613  0.19393186  0.51913190    -0.78000
O3056       O  0.43429266  0.22984397  0.49028287    -0.96700
O3057       O  0.40840823  0.26093423  0.52573049    -0.90000
O3058       O  0.41535476  0.21840810  0.55944173    -0.92800
C3059       C  0.38283573  0.15590351  0.44850966     1.00900
C3060       C  0.36130100  0.14371039  0.53486460     1.13900
C3061       C  0.32719019  0.24844214  0.47866969     1.04600
O3062       O  0.39620974  0.26163293  0.43659720    -0.95000
O3063       O  0.44530957  0.27045975  0.47346360    -0.90700
O3064       O  0.46626715  0.26957370  0.51047580    -0.83900
C3065       C  0.46648280  0.27188536  0.48678925     1.11300
O3066       O  0.33543737  0.23294641  0.56552200    -0.97000
Zr3067     Zr  0.37835269  0.24126964  0.55269841     1.88900
O3068       O  0.44185752  0.26849353  0.56657054    -0.73600
O3069       O  0.39363963  0.30187819  0.48464040    -0.52900
O3070       O  0.35556843  0.28097933  0.54962422    -0.97500
O3071       O  0.37634522  0.23098660  0.59714036    -0.54800
O3072       O  0.40061656  0.27047714  0.57700377    -0.74100
C3073       C  0.42333762  0.27687446  0.57964605     0.98200
O3074       O  0.49167537  0.23815458  0.53076450    -0.62900
O3075       O  0.42396566  0.13487259  0.55990442    -0.57700
O3076       O  0.46517543  0.21528231  0.56867522    -0.94400
O3077       O  0.45570905  0.17846212  0.55359038    -0.92900
O3078       O  0.45300184  0.14978698  0.48340661    -0.93200
O3079       O  0.47304695  0.18853570  0.46201655    -0.92000
C3080       C  0.46307286  0.19175609  0.57170964     1.17100
H3081       H  0.39762060  0.15400773  0.49809025     0.33000
H3082       H  0.44906486  0.23102771  0.48013781     0.43900
H3083       H  0.41949370  0.21954233  0.57685880     0.37400
H3084       H  0.35365212  0.24714296  0.51348540     0.33900
H3085       H  0.43836707  0.18826410  0.42361252     0.25700
H3086       H  0.37612885  0.30477314  0.49015056     0.31600
H3087       H  0.36598222  0.29147469  0.53855713     0.37500
H3088       H  0.44650426  0.14320860  0.49942920     0.32000
H3089       H  0.43925735  0.13073743  0.55025123     0.30800
H3090       H  0.39570152  0.16026692  0.59409224     0.32500
H3091       H  0.36562679  0.21607745  0.59855949     0.31500
H3092       H  0.48311050  0.19004680  0.47750831     0.35500
H3093       H  0.49760238  0.24332060  0.54749462     0.28200
H3094       H  0.31776617  0.18305098  0.46829516     0.32500
H3095       H  0.33051082  0.24697404  0.57653250     0.35300
H3096       H  0.42976295  0.13697357  0.57731222     0.27900
H3097       H  0.49710267  0.22047822  0.52916198     0.40800
H3098       H  0.40947792  0.27384594  0.43277064     0.30800
H3099       H  0.41925181  0.21018733  0.42813056     0.38500
H3100       H  0.36651400  0.24469415  0.60493167     0.30300
H3101       H  0.40399709  0.30640500  0.49928420     0.30400
H3102       H  0.30956705  0.18398119  0.49652619     0.30600
Zr3103     Zr  0.19321360  0.21711747  0.43089257     2.17500
O3104       O  0.21768233  0.24594063  0.40566249    -0.51700
O3105       O  0.22472035  0.19655198  0.45757131    -0.74900
O3106       O  0.21483701  0.24959208  0.44909912    -0.81700
O3107       O  0.18941505  0.17841987  0.37323694    -0.83500
O3108       O  0.19532013  0.25025888  0.48670796    -0.79100
O3109       O  0.21728478  0.19679209  0.39879438    -0.90700
O3110       O  0.20501579  0.16453334  0.47718387    -0.76700
O3111       O  0.17742482  0.20526043  0.47089045    -0.86200
O3112       O  0.17849993  0.17596795  0.42542859    -0.85900
O3113       O  0.16261568  0.24854828  0.44283648    -0.72600
O3114       O  0.16322015  0.22259148  0.39824900    -0.84700
Zr3115     Zr  0.10093230  0.19735168  0.44162317     2.26400
Zr3116     Zr  0.14653378  0.23568896  0.48280657     2.06300
Zr3117     Zr  0.14842791  0.18107069  0.39271133     2.10000
Zr3118     Zr  0.16159293  0.16448091  0.46484106     1.78800
O3119       O  0.14636218  0.19037204  0.34817929    -0.93600
O3120       O  0.16094454  0.15783060  0.50979491    -0.41400
O3121       O  0.13171444  0.16660996  0.43144065    -0.78000
O3122       O  0.13003884  0.19439718  0.47606228    -0.96700
O3123       O  0.11545763  0.23861895  0.45007265    -0.90000
O3124       O  0.11684147  0.21135750  0.40286256    -0.92800
C3125       C  0.22419360  0.17798340  0.47290216     1.00900
C3126       C  0.21190830  0.18413035  0.37946176     1.13900
C3127       C  0.21539164  0.25445918  0.47207140     1.04600
O3128       O  0.15425235  0.22524651  0.52652572    -0.95000
O3129       O  0.09879697  0.23226058  0.49974499    -0.90700
O3130       O  0.07479641  0.20671850  0.47562878    -0.83900
C3131       C  0.07719836  0.22058636  0.49459525     1.11300
O3132       O  0.15955509  0.28145400  0.39069484    -0.97000
Zr3133     Zr  0.13129543  0.25213541  0.41096257     1.88900
O3134       O  0.06690908  0.22368372  0.42667981    -0.73600
O3135       O  0.13994534  0.27863201  0.49635045    -0.52900
O3136       O  0.12470874  0.29378261  0.42808471    -0.97500
O3137       O  0.11813121  0.25885382  0.36771922    -0.54800
O3138       O  0.08593358  0.25774942  0.41022540    -0.74100
C3139       C  0.06642523  0.24528057  0.41629557     0.98200
O3140       O  0.08060266  0.15912304  0.45495352    -0.62900
O3141       O  0.15366954  0.13651278  0.38482950    -0.57700
O3142       O  0.08011599  0.17420937  0.40970692    -0.94400
O3143       O  0.10839551  0.16481088  0.37938230    -0.92900
O3144       O  0.18021949  0.12423810  0.45369801    -0.93200
O3145       O  0.13206197  0.13195447  0.47618061    -0.92000
C3146       C  0.08630267  0.16460098  0.38878126     1.17100
H3147       H  0.19169886  0.16421328  0.42118935     0.33000
H3148       H  0.12158561  0.18855961  0.49089047     0.43900
H3149       H  0.10400031  0.21234120  0.39012395     0.37400
H3150       H  0.17029726  0.26470101  0.44451325     0.33900
H3151       H  0.17583897  0.14702208  0.51289341     0.25700
H3152       H  0.15614365  0.28688706  0.49312747     0.31600
H3153       H  0.11969971  0.30427420  0.41354526     0.37500
H3154       H  0.18218101  0.11518416  0.46980250     0.32000
H3155       H  0.16119226  0.13557862  0.36795921     0.30800
H3156       H  0.14139954  0.20825211  0.34723689     0.32500
H3157       H  0.13341730  0.25610879  0.35757930     0.31500
H3158       H  0.12978384  0.12205731  0.46078111     0.35500
H3159       H  0.08479898  0.15719816  0.47287582     0.28200
H3160       H  0.23521541  0.23969531  0.40647500     0.32500
H3161       H  0.16894684  0.28939979  0.40445001     0.35300
H3162       H  0.16730732  0.13099416  0.39628417     0.27900
H3163       H  0.06242149  0.16306352  0.45430857     0.40800
H3164       H  0.14141773  0.21267733  0.53065808     0.30800
H3165       H  0.16561935  0.17417549  0.51686466     0.38500
H3166       H  0.11452524  0.27702404  0.36634688     0.30300
H3167       H  0.12830001  0.28596728  0.48376538     0.30400
H3168       H  0.21234672  0.24335697  0.38813499     0.30600
C3169       C  0.28596796  0.27059114  0.46067939    -0.06200
C3170       C  0.29891277  0.25806731  0.48026095    -0.00200
C3171       C  0.28292111  0.25140754  0.50108023    -0.08800
C3172       C  0.25585990  0.25268217  0.49956077    -0.06200
C3173       C  0.24279900  0.26281680  0.47899455    -0.00300
C3174       C  0.25899250  0.27450725  0.46063141    -0.08700
C3175       C  0.24865384  0.29232879  0.44083663     0.61700
H3176       H  0.29687692  0.27754193  0.44513232     0.12400
H3177       H  0.24466948  0.24529552  0.51451824     0.12400
C3178       C  0.29447596  0.24479365  0.52606880     0.61900
F3179       F  0.26102860  0.31483512  0.44243738    -0.23300
F3180       F  0.22330287  0.29736249  0.44378178    -0.20600
F3181       F  0.25271395  0.28252054  0.41735573    -0.20300
F3182       F  0.31247629  0.26224462  0.53151154    -0.20300
F3183       F  0.30507857  0.22113095  0.52557650    -0.20700
F3184       F  0.27700578  0.24548170  0.54514326    -0.23300
C3185       C  0.53595546  0.29231623  0.47989548    -0.06200
C3186       C  0.54978331  0.26923460  0.48028309    -0.00200
C3187       C  0.53497684  0.24789512  0.47521208    -0.08800
C3188       C  0.50779236  0.24994240  0.47349159    -0.06200
C3189       C  0.49383997  0.27284152  0.47629503    -0.00300
C3190       C  0.50904418  0.29446330  0.47847717    -0.08700
C3191       C  0.49773510  0.32050438  0.48070160     0.61700
H3192       H  0.54632476  0.30926015  0.48312737     0.12400
H3193       H  0.49709389  0.23299976  0.47208666     0.12400
C3194       C  0.54810297  0.22289522  0.47232014     0.61900
F3195       F  0.50715947  0.33549551  0.46189061    -0.23300
F3196       F  0.50423228  0.33050609  0.50356405    -0.20600
F3197       F  0.47186535  0.32084625  0.47863122    -0.20300
F3198       F  0.53189180  0.20477490  0.46392313    -0.20300
F3199       F  0.55812117  0.21525010  0.49496315    -0.20700
F3200       F  0.56732222  0.22511088  0.45514210    -0.23300
C3201       C  0.00903913  0.20092994  0.51118970    -0.06200
C3202       C  0.99548088  0.22359333  0.51322989    -0.00200
C3203       C  0.01121784  0.24521600  0.51643472    -0.08800
C3204       C  0.03812892  0.24410714  0.51283370    -0.06200
C3205       C  0.05149712  0.22153006  0.50900660    -0.00300
C3206       C  0.03609055  0.19948641  0.51110698    -0.08700
C3207       C  0.04732422  0.17349921  0.51379224     0.61700
H3208       H  0.99843622  0.18389889  0.50927773     0.12400
H3209       H  0.04865816  0.26125328  0.51196409     0.12400
C3210       C  0.99958840  0.26961082  0.52489202     0.61900
F3211       F  0.03814125  0.16253961  0.53532844    -0.23300
F3212       F  0.07319761  0.17367028  0.51566674    -0.20600
F3213       F  0.04028967  0.15911699  0.49366957    -0.20300
F3214       F  0.98458753  0.26482189  0.54532706    -0.20300
F3215       F  0.98546296  0.28042691  0.50601528    -0.20700
F3216       F  0.01756033  0.28659878  0.53208608    -0.23300
C3217       C  0.78480063  0.22410285  0.53295561    -0.06200
C3218       C  0.79840024  0.23371823  0.51251742    -0.00200
C3219       C  0.78292595  0.23962742  0.49101382    -0.08800
C3220       C  0.75577677  0.24005818  0.49197963    -0.06200
C3221       C  0.74208795  0.23234101  0.51309429    -0.00300
C3222       C  0.75773420  0.22196253  0.53297008    -0.08700
C3223       C  0.74666831  0.20789719  0.55490537     0.61700
H3224       H  0.79528473  0.21852506  0.54949718     0.12400
H3225       H  0.74515667  0.24798736  0.47650911     0.12400
C3226       C  0.79536373  0.24586875  0.46664228     0.61900
F3227       F  0.75663378  0.18388811  0.55540965    -0.23300
F3228       F  0.72084963  0.20605498  0.55339715    -0.20600
F3229       F  0.75297770  0.21954690  0.57698701    -0.20300
F3230       F  0.81331050  0.22776621  0.46141552    -0.20300
F3231       F  0.80646563  0.26883804  0.46859253    -0.20700
F3232       F  0.77844469  0.24669672  0.44695369    -0.23300
C3233       C  0.02575045  0.24393257  0.39395588    -0.06200
C3234       C  0.04190338  0.25664178  0.41008856    -0.00200
C3235       C  0.03583893  0.28136228  0.41722039    -0.08800
C3236       C  0.01749336  0.29450278  0.40348636    -0.06200
C3237       C  0.00535113  0.28329610  0.38316184    -0.00300
C3238       C  0.00640038  0.25686935  0.38128376    -0.08700
C3239       C  0.98855440  0.24216835  0.36519430     0.61700
H3240       H  0.02916317  0.22431040  0.39004538     0.12400
H3241       H  0.01515674  0.31437614  0.40657513     0.12400
C3242       C  0.05031257  0.29475992  0.43736830     0.61900
F3243       F  0.98063629  0.22126960  0.37813282    -0.23300
F3244       F  0.00054643  0.23458488  0.34360491    -0.20600
F3245       F  0.96745325  0.25616752  0.35905457    -0.20300
F3246       F  0.07183937  0.30465319  0.42726856    -0.20300
F3247       F  0.05667988  0.27840716  0.45658525    -0.20700
F3248       F  0.03608898  0.31404745  0.44740898    -0.23300
C3249       C  0.95049161  0.35199627  0.36073877    -0.06200
C3250       C  0.94084816  0.33449601  0.34381200    -0.00200
C3251       C  0.93300300  0.31111296  0.35298694    -0.08800
C3252       C  0.93954443  0.30441576  0.37758627    -0.06200
C3253       C  0.95092791  0.32141632  0.39414895    -0.00300
C3254       C  0.95559678  0.34603990  0.38577802    -0.08700
C3255       C  0.96641950  0.36594488  0.40271894     0.61700
H3256       H  0.95471864  0.37044370  0.35411686     0.12400
H3257       H  0.93420027  0.28609328  0.38427941     0.12400
C3258       C  0.91545788  0.29402756  0.33879367     0.61900
F3259       F  0.97497853  0.38628324  0.38924181    -0.23300
F3260       F  0.98645059  0.35617636  0.41624647    -0.20600
F3261       F  0.94814619  0.37452826  0.41893946    -0.20300
F3262       F  0.92704462  0.27132090  0.33430742    -0.20300
F3263       F  0.90728996  0.30419006  0.31634064    -0.20700
F3264       F  0.89444619  0.28973894  0.35317747    -0.23300
C3265       C  0.02499667  0.48289727  0.22368257    -0.06200
C3266       C  0.00529334  0.49461465  0.23721872    -0.00200
C3267       C  0.98708266  0.47776805  0.24695877    -0.08800
C3268       C  0.98991256  0.45101894  0.24353204    -0.06200
C3269       C  0.01099319  0.43936681  0.23184195    -0.00300
C3270       C  0.02804950  0.45646095  0.22059643    -0.08700
C3271       C  0.05058350  0.44789194  0.20549761     0.61700
H3272       H  0.03969574  0.49470354  0.21674995     0.12400
H3273       H  0.97593329  0.43900898  0.25155428     0.12400
C3274       C  0.96539634  0.48666936  0.26286411     0.61900
F3275       F  0.05125654  0.42233776  0.20181296    -0.23300
F3276       F  0.07237611  0.45479896  0.21758304    -0.20600
F3277       F  0.04979754  0.45936250  0.18223846    -0.20300
F3278       F  0.96299216  0.51241148  0.26316363    -0.20300
F3279       F  0.96894730  0.47823066  0.28711718    -0.20700
F3280       F  0.94328834  0.47702060  0.25366792    -0.23300
C3281       C  0.98838746  0.73013655  0.26000120    -0.06200
C3282       C  0.98245525  0.74471272  0.23848431    -0.00200
C3283       C  0.97572471  0.73024253  0.21687807    -0.08800
C3284       C  0.97852945  0.70359122  0.21656741    -0.06200
C3285       C  0.98599891  0.68891195  0.23736480    -0.00300
C3286       C  0.98921487  0.70296548  0.26009823    -0.08700
C3287       C  0.99330823  0.69058668  0.28521797     0.61700
H3288       H  0.99330870  0.73998249  0.27691763     0.12400
H3289       H  0.97541920  0.69398574  0.19905501     0.12400
C3290       C  0.96578852  0.74188498  0.19279998     0.61900
F3291       F  0.97456334  0.69837817  0.30133541    -0.23300
F3292       F  0.01618803  0.69761262  0.29495504    -0.20600
F3293       F  0.99256704  0.66489359  0.28390799    -0.20300
F3294       F  0.94319819  0.73099244  0.18666216    -0.20300
F3295       F  0.98262718  0.73753672  0.17366990    -0.20700
F3296       F  0.96159874  0.76725733  0.19459553    -0.23300
C3297       C  0.92763128  0.16806983  0.38037828    -0.06200
C3298       C  0.91454055  0.17324623  0.35806052    -0.00200
C3299       C  0.90510188  0.19761025  0.35352552    -0.08800
C3300       C  0.90943048  0.21612150  0.37131545    -0.06200
C3301       C  0.92180413  0.21111026  0.39420846    -0.00300
C3302       C  0.93144210  0.18657017  0.39871615    -0.08700
C3303       C  0.94594197  0.17982414  0.42232447     0.61700
H3304       H  0.93581160  0.14955695  0.38280038     0.12400
H3305       H  0.90253507  0.23487938  0.36725990     0.12400
C3306       C  0.89150931  0.20533370  0.32963041     0.61900
F3307       F  0.93096796  0.18368156  0.44303928    -0.23300
F3308       F  0.96711372  0.19440553  0.42399965    -0.20600
F3309       F  0.95372038  0.15501896  0.42254239    -0.20300
F3310       F  0.88321989  0.18513609  0.31604189    -0.20300
F3311       F  0.90750215  0.21919110  0.31490432    -0.20700
F3312       F  0.87069985  0.21993971  0.33536174    -0.23300
C3313       C  0.99467248  0.95489360  0.22977566    -0.06200
C3314       C  0.98751164  0.94060653  0.25117637    -0.00200
C3315       C  0.98323026  0.95478285  0.27319581    -0.08800
C3316       C  0.98532504  0.98164287  0.27281568    -0.06200
C3317       C  0.99111464  0.99601062  0.25104381    -0.00300
C3318       C  0.99658813  0.98177350  0.22935709    -0.08700
C3319       C  0.00265654  0.99529457  0.20523985     0.61700
H3320       H  0.99689385  0.94489143  0.21240891     0.12400
H3321       H  0.98032966  0.99197513  0.28943663     0.12400
C3322       C  0.97509592  0.94149923  0.29681406     0.61900
F3323       F  0.00961735  0.97885987  0.18654877    -0.23300
F3324       F  0.02229901  0.01144978  0.20925813    -0.20600
F3325       F  0.98190215  0.00890233  0.19715569    -0.20300
F3326       F  0.99345083  0.92432957  0.30387190    -0.20300
F3327       F  0.95288444  0.92909867  0.29259418    -0.20700
F3328       F  0.97133666  0.95796540  0.31634891    -0.23300
C3329       C  0.02438831  0.20217658  0.24834755    -0.06200
C3330       C  0.00510896  0.18918363  0.23621344    -0.00200
C3331       C  0.98779679  0.20469785  0.22239382    -0.08800
C3332       C  0.98919741  0.23175605  0.22283954    -0.06200
C3333       C  0.00791573  0.24480812  0.23623651    -0.00300
C3334       C  0.02622807  0.22890564  0.24843042    -0.08700
C3335       C  0.04820008  0.24024152  0.26176132     0.61700
H3336       H  0.03738575  0.19101073  0.25946382     0.12400
H3337       H  0.97452595  0.24288347  0.21400130     0.12400
C3338       C  0.96672184  0.19234387  0.20856764     0.61900
F3339       F  0.06402892  0.22239809  0.27244578    -0.23300
F3340       F  0.03990624  0.25587971  0.28050142    -0.20600
F3341       F  0.06177024  0.25345474  0.24441019    -0.20300
F3342       F  0.97657810  0.17521725  0.19187291    -0.20300
F3343       F  0.95198030  0.20940269  0.19540075    -0.20700
F3344       F  0.95184767  0.18012233  0.22559443    -0.23300
C3345       C  0.03947414  0.15010625  0.33838372    -0.06200
C3346       C  0.02322627  0.13428012  0.35139596    -0.00200
C3347       C  0.02824818  0.12766973  0.37655839    -0.08800
C3348       C  0.04992182  0.13715201  0.38774961    -0.06200
C3349       C  0.06603824  0.15312619  0.37466905    -0.00300
C3350       C  0.06059225  0.16019154  0.34973989    -0.08700
C3351       C  0.07615835  0.17904461  0.33540708     0.61700
H3352       H  0.03540868  0.15462443  0.31900810     0.12400
H3353       H  0.05429533  0.13251302  0.40703201     0.12400
C3354       C  0.01044320  0.11178332  0.39182260     0.61900
F3355       F  0.06486472  0.18601846  0.31304102    -0.23300
F3356       F  0.09942511  0.16874141  0.33006795    -0.20600
F3357       F  0.07907273  0.20046691  0.34940388    -0.20300
F3358       F  0.01069784  0.08751969  0.38307530    -0.20300
F3359       F  0.98635155  0.12161020  0.39009517    -0.20700
F3360       F  0.01711955  0.11105566  0.41685308    -0.23300
C3361       C  0.18619954  0.34065013  0.28972654    -0.06200
C3362       C  0.19353457  0.36396746  0.29855854    -0.00200
C3363       C  0.17581330  0.37828940  0.31208336    -0.08800
C3364       C  0.15027574  0.37413572  0.30783822    -0.06200
C3365       C  0.14245115  0.35352720  0.29386973    -0.00300
C3366       C  0.16069201  0.33496010  0.28712720    -0.08700
C3367       C  0.15384321  0.30987913  0.27617135     0.61700
H3368       H  0.20037752  0.32844439  0.28173161     0.12400
H3369       H  0.13643269  0.38674764  0.31589033     0.12400
C3370       C  0.18326625  0.39808317  0.33057653     0.61900
F3371       F  0.17483609  0.29585246  0.26965077    -0.23300
F3372       F  0.13942948  0.31345556  0.25489563    -0.20600
F3373       F  0.14080225  0.29622161  0.29375225    -0.20300
F3374       F  0.17636878  0.42140506  0.32155532    -0.20300
F3375       F  0.20879294  0.39753282  0.33537872    -0.20700
F3376       F  0.17107652  0.39382005  0.35288511    -0.23300
C3377       C  0.18234662  0.51039964  0.26696972    -0.06200
C3378       C  0.17238901  0.48993769  0.27987528    -0.00200
C3379       C  0.14932960  0.49224775  0.29218719    -0.08800
C3380       C  0.13507912  0.51397239  0.28782443    -0.06200
C3381       C  0.14286280  0.53246470  0.27052784    -0.00300
C3382       C  0.16808527  0.53211852  0.26235590    -0.08700
C3383       C  0.17957706  0.55334694  0.24756497     0.61700
H3384       H  0.20019998  0.50801508  0.25762992     0.12400
H3385       H  0.11673490  0.51548812  0.29628617     0.12400
C3386       C  0.13972970  0.47165164  0.30910268     0.61900
F3387       F  0.20522131  0.55028295  0.24490651    -0.23300
F3388       F  0.17541086  0.57572227  0.25980135    -0.20600
F3389       F  0.16925380  0.55443908  0.22391566    -0.20300
F3390       F  0.15697189  0.46722459  0.32801959    -0.20300
F3391       F  0.13637363  0.44993768  0.29566787    -0.20700
F3392       F  0.11705469  0.47812633  0.31999464    -0.23300
C3393       C  0.07959346  0.56081918  0.38143559    -0.06200
C3394       C  0.10379253  0.56897036  0.38708061    -0.00200
C3395       C  0.11451130  0.58864161  0.37316924    -0.08800
C3396       C  0.10194127  0.59717004  0.35162980    -0.06200
C3397       C  0.07905849  0.58677598  0.34425390    -0.00300
C3398       C  0.06659410  0.57004574  0.36047610    -0.08700
C3399       C  0.03985469  0.56143266  0.35652604     0.61700
H3400       H  0.07108316  0.54658014  0.39304332     0.12400
H3401       H  0.11087810  0.61058904  0.33942634     0.12400
C3402       C  0.13915697  0.60028127  0.38092137     0.61900
F3403       F  0.02633520  0.56518785  0.37823423    -0.23300
F3404       F  0.04000793  0.53621255  0.35103483    -0.20600
F3405       F  0.02751392  0.57439355  0.33761083    -0.20300
F3406       F  0.15868504  0.58335495  0.37783778    -0.20300
F3407       F  0.13796425  0.60723088  0.40576035    -0.20700
F3408       F  0.14432690  0.62139084  0.36685492    -0.23300
C3409       C  0.26129879  0.47380479  0.33172440    -0.06200
C3410       C  0.25308539  0.49095158  0.31231658    -0.00200
C3411       C  0.24143893  0.51296697  0.32204682    -0.08800
C3412       C  0.23335928  0.51391336  0.34795720    -0.06200
C3413       C  0.23886200  0.49501418  0.36648125    -0.00300
C3414       C  0.25478739  0.47546547  0.35787490    -0.08700
C3415       C  0.26449832  0.45596667  0.37623463     0.61700
H3416       H  0.27306543  0.45820270  0.32630847     0.12400
H3417       H  0.22276662  0.53013094  0.35410554     0.12400
C3418       C  0.24062960  0.53647288  0.30632715     0.61900
F3419       F  0.28106461  0.43926177  0.36518469    -0.23300
F3420       F  0.24463030  0.44268020  0.38587476    -0.20600
F3421       F  0.27701682  0.46762249  0.39552434    -0.20300
F3422       F  0.22662396  0.53284776  0.28518510    -0.20300
F3423       F  0.26481827  0.54248834  0.29943087    -0.20700
F3424       F  0.23042102  0.55653805  0.31918026    -0.23300
C3425       C  0.09791881  0.45541315  0.37629688    -0.06200
C3426       C  0.11688411  0.44391299  0.39071223    -0.00200
C3427       C  0.12147808  0.41789335  0.38867783    -0.08800
C3428       C  0.10635357  0.40403282  0.37255608    -0.06200
C3429       C  0.08708947  0.41535108  0.35843571    -0.00300
C3430       C  0.08275627  0.44151934  0.36005988    -0.08700
C3431       C  0.06190913  0.45462968  0.34538057     0.61700
H3432       H  0.09482396  0.47537181  0.37821632     0.12400
H3433       H  0.10948945  0.38406377  0.37079406     0.12400
C3434       C  0.14250214  0.40485689  0.40310409     0.61900
F3435       F  0.05894401  0.47937480  0.35239447    -0.23300
F3436       F  0.03937429  0.44274668  0.34942950    -0.20600
F3437       F  0.06742265  0.45423502  0.32016265    -0.20300
F3438       F  0.13691323  0.40457523  0.42825922    -0.20300
F3439       F  0.16478467  0.41730623  0.39933565    -0.20700
F3440       F  0.14590887  0.38030724  0.39564244    -0.23300
C3441       C  0.24207056  0.50651192  0.56999789    -0.06200
C3442       C  0.22689725  0.48676436  0.56196750    -0.00200
C3443       C  0.21337674  0.47450054  0.58197986    -0.08800
C3444       C  0.21267061  0.48430352  0.60711325    -0.06200
C3445       C  0.22650851  0.50526601  0.61474301    -0.00300
C3446       C  0.24302812  0.51505883  0.59555312    -0.08700
C3447       C  0.26270859  0.53432926  0.60170080     0.61700
H3448       H  0.25244749  0.51636057  0.55573920     0.12400
H3449       H  0.20075453  0.47546193  0.62084810     0.12400
C3450       C  0.19877408  0.45077390  0.57764315     0.61900
F3451       F  0.28106131  0.53542316  0.58348043    -0.23300
F3452       F  0.27444620  0.52809973  0.62395575    -0.20600
F3453       F  0.25182628  0.55775290  0.60344921    -0.20300
F3454       F  0.20390117  0.44019397  0.55466845    -0.20300
F3455       F  0.17333915  0.45594708  0.57921652    -0.20700
F3456       F  0.20515385  0.43328926  0.59584010    -0.23300
C3457       C  0.26474170  0.51350600  0.07698201    -0.06200
C3458       C  0.24826686  0.50251839  0.05900210    -0.00200
C3459       C  0.22837730  0.48866402  0.06974506    -0.08800
C3460       C  0.22702711  0.48467897  0.09655902    -0.06200
C3461       C  0.24482597  0.49388344  0.11443197    -0.00300
C3462       C  0.26350192  0.50948741  0.10378366    -0.08700
C3463       C  0.28326067  0.52055327  0.12057808     0.61700
H3464       H  0.28034646  0.52390096  0.06954587     0.12400
H3465       H  0.21228587  0.47294873  0.10373267     0.12400
C3466       C  0.20881058  0.47771919  0.05256714     0.61900
F3467       F  0.29914702  0.53617151  0.10754592    -0.23300
F3468       F  0.29751000  0.50155604  0.13138085    -0.20600
F3469       F  0.27175464  0.53438098  0.13915527    -0.20300
F3470       F  0.21998800  0.46116906  0.03611349    -0.20300
F3471       F  0.19735233  0.49682998  0.03903343    -0.20700
F3472       F  0.19047248  0.46519430  0.06572168    -0.23300
C3473       C  0.22217593  0.51476637  0.85579939    -0.06200
C3474       C  0.24155816  0.49860020  0.86428321    -0.00200
C3475       C  0.25103104  0.48176549  0.84519647    -0.08800
C3476       C  0.24401761  0.48436280  0.81919621    -0.06200
C3477       C  0.22540118  0.50127362  0.81051006    -0.00300
C3478       C  0.21328385  0.51535647  0.83023871    -0.08700
C3479       C  0.19110489  0.53250529  0.82486362     0.61700
H3480       H  0.21412122  0.52774157  0.86911777     0.12400
H3481       H  0.25406501  0.47343617  0.80536768     0.12400
C3482       C  0.26844846  0.45992318  0.85108172     0.61900
F3483       F  0.17254914  0.52829456  0.84236720    -0.23300
F3484       F  0.18090558  0.52841571  0.80146083    -0.20600
F3485       F  0.19852670  0.55710234  0.82651702    -0.20300
F3486       F  0.27085254  0.45559351  0.87635878    -0.20300
F3487       F  0.29186211  0.46418574  0.84099657    -0.20700
F3488       F  0.25883135  0.43845705  0.84061008    -0.23300
C3489       C  0.41898390  0.33261965  0.62217519    -0.06200
C3490       C  0.41754685  0.32020941  0.64528812    -0.00200
C3491       C  0.41948659  0.29385136  0.64622731    -0.08800
C3492       C  0.42577510  0.28094167  0.62443381    -0.06200
C3493       C  0.42724281  0.29313393  0.60123499    -0.00300
C3494       C  0.42301113  0.31930642  0.59984622    -0.08700
C3495       C  0.42298652  0.33301069  0.57496404     0.61700
H3496       H  0.41781383  0.35285607  0.62185847     0.12400
H3497       H  0.42722550  0.26071040  0.62513611     0.12400
C3498       C  0.41345536  0.27848573  0.66934521     0.61900
F3499       F  0.44636914  0.33063496  0.56405487    -0.23300
F3500       F  0.41750645  0.35822600  0.57773167    -0.20600
F3501       F  0.40515574  0.32305033  0.55921015    -0.20300
F3502       F  0.40442237  0.29283412  0.68884451    -0.20300
F3503       F  0.43468830  0.26558064  0.67725342    -0.20700
F3504       F  0.39508656  0.26147079  0.66343455    -0.23300
C3505       C  0.32505302  0.43745954  0.72782753    -0.06200
C3506       C  0.34274964  0.43573009  0.74697218    -0.00200
C3507       C  0.33870853  0.44952713  0.76917126    -0.08800
C3508       C  0.32204171  0.46999704  0.76848936    -0.06200
C3509       C  0.30788365  0.47494179  0.74697693    -0.00300
C3510       C  0.30714004  0.45674087  0.72767306    -0.08700
C3511       C  0.28873468  0.45717357  0.70604226     0.61700
H3512       H  0.32673685  0.42541362  0.71166934     0.12400
H3513       H  0.32139061  0.48292221  0.78401807     0.12400
C3514       C  0.35239267  0.44360063  0.79319594     0.61900
F3515       F  0.27453819  0.43573115  0.70699643    -0.23300
F3516       F  0.30170412  0.45754192  0.68370155    -0.20600
F3517       F  0.27256620  0.47746562  0.70655856    -0.20300
F3518       F  0.37102099  0.46090604  0.79688739    -0.20300
F3519       F  0.36271532  0.41979637  0.79255611    -0.20700
F3520       F  0.33586676  0.44451194  0.81306494    -0.23300
C3521       C  0.37596620  0.43026516  0.87249574    -0.06200
C3522       C  0.38068035  0.45572521  0.87537104    -0.00200
C3523       C  0.39661250  0.46828819  0.85885077    -0.08800
C3524       C  0.40802515  0.45452260  0.83974877    -0.06200
C3525       C  0.40278353  0.42894677  0.83585817    -0.00300
C3526       C  0.38649842  0.41646195  0.85278135    -0.08700
C3527       C  0.37964950  0.38906482  0.85023912     0.61700
H3528       H  0.36342292  0.42144755  0.88567160     0.12400
H3529       H  0.42052144  0.46411265  0.82711729     0.12400
C3530       C  0.40085977  0.49623195  0.86123832     0.61900
F3531       F  0.40100488  0.37424954  0.85250737    -0.23300
F3532       F  0.36836604  0.38497896  0.82737988    -0.20600
F3533       F  0.36296771  0.38155233  0.86849829    -0.20300
F3534       F  0.41062935  0.50139106  0.88459738    -0.20300
F3535       F  0.37828088  0.50900943  0.85831668    -0.20700
F3536       F  0.41733915  0.50503865  0.84339672    -0.23300
C3537       C  0.54153196  0.36793906  0.64708893    -0.06200
C3538       C  0.51817139  0.35670095  0.64480806    -0.00200
C3539       C  0.51363455  0.33939027  0.62568415    -0.08800
C3540       C  0.53373035  0.33221407  0.61037927    -0.06200
C3541       C  0.55776832  0.34256196  0.61326460    -0.00300
C3542       C  0.56147553  0.36162422  0.63133022    -0.08700
C3543       C  0.58591683  0.37571194  0.63415078     0.61700
H3544       H  0.54414499  0.38148978  0.66182449     0.12400
H3545       H  0.53074903  0.31818525  0.59621762     0.12400
C3546       C  0.48744958  0.32985133  0.62068202     0.61900
F3547       F  0.58299734  0.39672488  0.64891319    -0.23300
F3548       F  0.59411737  0.38366656  0.61096672    -0.20600
F3549       F  0.60395097  0.36048519  0.64531243    -0.20300
F3550       F  0.47197853  0.34992722  0.61453415    -0.20300
F3551       F  0.47813538  0.31804074  0.64164108    -0.20700
F3552       F  0.48703986  0.31301441  0.60114345    -0.23300
C3553       C  0.38622428  0.60052004  0.87125148    -0.06200
C3554       C  0.40985518  0.59404028  0.88129303    -0.00200
C3555       C  0.41169461  0.58096619  0.90416795    -0.08800
C3556       C  0.38949044  0.57316211  0.91549304    -0.06200
C3557       C  0.36588034  0.57821634  0.90466942    -0.00300
C3558       C  0.36394630  0.59296491  0.88287249    -0.08700
C3559       C  0.33861540  0.60119990  0.87269593     0.61700
H3560       H  0.38540441  0.61144401  0.85417492     0.12400
H3561       H  0.39045685  0.56206376  0.93248300     0.12400
C3562       C  0.43691705  0.57464834  0.91605336     0.61900
F3563       F  0.34090555  0.61822594  0.85328919    -0.23300
F3564       F  0.32487883  0.61252237  0.89148308    -0.20600
F3565       F  0.32574040  0.58073787  0.86406468    -0.20300
F3566       F  0.44907548  0.59644148  0.92213644    -0.20300
F3567       F  0.45151930  0.56105821  0.89952570    -0.20700
F3568       F  0.43439830  0.56063803  0.93772359    -0.23300
C3569       C  0.49755141  0.53155574  0.78020258    -0.06200
C3570       C  0.49261678  0.54538606  0.75785656    -0.00200
C3571       C  0.48977256  0.53057260  0.73600280    -0.08800
C3572       C  0.49122068  0.50354103  0.73739437    -0.06200
C3573       C  0.49484115  0.48969237  0.76003810    -0.00300
C3574       C  0.49824173  0.50463789  0.78176885    -0.08700
C3575       C  0.50073082  0.49206368  0.80712568     0.61700
H3576       H  0.49889085  0.54219574  0.79727327     0.12400
H3577       H  0.48741684  0.49282892  0.72075107     0.12400
C3578       C  0.48373194  0.54342291  0.71142570     0.61900
F3579       F  0.50548097  0.50909716  0.82589282    -0.23300
F3580       F  0.52032011  0.47485673  0.80669703    -0.20600
F3581       F  0.47873845  0.47987841  0.81285655    -0.20300
F3582       F  0.50285119  0.55958079  0.70537445    -0.20300
F3583       F  0.46150561  0.55689005  0.71349244    -0.20700
F3584       F  0.48115227  0.52648096  0.69216638    -0.23300
C3585       C  0.36551789  0.59795248  0.80441144    -0.06200
C3586       C  0.37182168  0.62315562  0.80127136    -0.00200
C3587       C  0.35260778  0.64099671  0.79548176    -0.08800
C3588       C  0.32835597  0.63230872  0.79087598    -0.06200
C3589       C  0.32309947  0.60672729  0.79037339    -0.00300
C3590       C  0.34166715  0.58912333  0.79854944    -0.08700
C3591       C  0.33727881  0.56109556  0.80019809     0.61700
H3592       H  0.37998751  0.58484014  0.81045598     0.12400
H3593       H  0.31366443  0.64535189  0.78519633     0.12400
C3594       C  0.35760264  0.66861012  0.79154573     0.61900
F3595       F  0.35850102  0.54792784  0.80795346    -0.23300
F3596       F  0.33046906  0.55182261  0.77711932    -0.20600
F3597       F  0.31872094  0.55654747  0.81745870    -0.20300
F3598       F  0.37428872  0.67127079  0.77210253    -0.20300
F3599       F  0.36717756  0.67900123  0.81309277    -0.20700
F3600       F  0.33604505  0.68201767  0.78530854    -0.23300
C3601       C  0.48000230  0.78362865  0.75764999    -0.06200
C3602       C  0.50328859  0.79614979  0.75774427    -0.00200
C3603       C  0.52479201  0.78010897  0.75308233    -0.08800
C3604       C  0.52256604  0.75344199  0.75212455    -0.06200
C3605       C  0.49964747  0.74064288  0.75359221    -0.00300
C3606       C  0.47785940  0.75678847  0.75488436    -0.08700
C3607       C  0.45171376  0.74661131  0.75311763     0.61700
H3608       H  0.46312804  0.79475231  0.76049643     0.12400
H3609       H  0.53960433  0.74216520  0.75118748     0.12400
C3610       C  0.55121907  0.78961568  0.74895878     0.61900
F3611       F  0.43867895  0.75913284  0.73436242    -0.23300
F3612       F  0.43934281  0.75030950  0.77545680    -0.20600
F3613       F  0.45197004  0.72151559  0.74736943    -0.20300
F3614       F  0.56662338  0.78126863  0.76821008    -0.20300
F3615       F  0.55254325  0.81528965  0.74743672    -0.20700
F3616       F  0.56035021  0.78013658  0.72670463    -0.23300
C3617       C  0.52352185  0.19745435  0.59753767    -0.06200
C3618       C  0.51367737  0.20789521  0.61953666    -0.00200
C3619       C  0.51512279  0.23423248  0.62280658    -0.08800
C3620       C  0.53072864  0.24783207  0.60661910    -0.06200
C3621       C  0.54426948  0.23585979  0.58763273    -0.00300
C3622       C  0.53895769  0.21090426  0.58157178    -0.08700
C3623       C  0.54999409  0.19715266  0.55938700     0.61700
H3624       H  0.52134885  0.17779903  0.59391048     0.12400
H3625       H  0.53448187  0.26733465  0.61029216     0.12400
C3626       C  0.50164246  0.24794663  0.64366523     0.61900
F3627       F  0.53067154  0.18817582  0.54480248    -0.23300
F3628       F  0.56445661  0.17712582  0.56779438    -0.20600
F3629       F  0.56468991  0.21217253  0.54450557    -0.20300
F3630       F  0.50325941  0.27358370  0.64087297    -0.20300
F3631       F  0.51205365  0.24161821  0.66659248    -0.20700
F3632       F  0.47650187  0.24196987  0.64323007    -0.23300
C3633       C  0.47316210  0.03494766  0.76030524    -0.06200
C3634       C  0.49375886  0.04504397  0.77359956    -0.00200
C3635       C  0.50979196  0.02680893  0.78549410    -0.08800
C3636       C  0.50723795  0.00061555  0.78049745    -0.06200
C3637       C  0.48816181  0.99059186  0.76519894    -0.00300
C3638       C  0.47044139  0.00848692  0.75560328    -0.08700
C3639       C  0.44935314  0.99947741  0.73919123     0.61700
H3640       H  0.45998415  0.04807616  0.75201527     0.12400
H3641       H  0.52155299  0.98786924  0.78753276     0.12400
C3642       C  0.52991332  0.03406392  0.80413003     0.61900
F3643       F  0.43239293  0.01849491  0.73348205    -0.23300
F3644       F  0.43663844  0.98064063  0.75140089    -0.20600
F3645       F  0.45912434  0.99023877  0.71713711    -0.20300
F3646       F  0.53010269  0.05945092  0.80886045    -0.20300
F3647       F  0.55326292  0.02679778  0.79537307    -0.20700
F3648       F  0.52553192  0.02197348  0.82658924    -0.23300
C3649       C  0.51809809  0.25035023  0.76311878    -0.06200
C3650       C  0.49437225  0.23866886  0.76471032    -0.00200
C3651       C  0.47350111  0.25538891  0.76786839    -0.08800
C3652       C  0.47686289  0.28212411  0.76890632    -0.06200
C3653       C  0.50036360  0.29397622  0.76563342    -0.00300
C3654       C  0.52133547  0.27715659  0.76316400    -0.08700
C3655       C  0.54726109  0.28775597  0.75947892     0.61700
H3656       H  0.53418028  0.23828511  0.75974795     0.12400
H3657       H  0.46048369  0.29421921  0.76988182     0.12400
C3658       C  0.44728471  0.24477156  0.76874174     0.61900
F3659       F  0.56567397  0.26924312  0.75988874    -0.23300
F3660       F  0.55233463  0.30444264  0.77842188    -0.20600
F3661       F  0.54838712  0.30008636  0.73673435    -0.20300
F3662       F  0.44593161  0.22722799  0.78776630    -0.20300
F3663       F  0.44174012  0.23339018  0.74633661    -0.20700
F3664       F  0.42923857  0.26307518  0.77290951    -0.23300
C3665       C  0.44728760  0.19535565  0.61450686    -0.06200
C3666       C  0.46168757  0.18143718  0.59729397    -0.00200
C3667       C  0.46919026  0.15662947  0.60348276    -0.08800
C3668       C  0.46130065  0.14671494  0.62647338    -0.06200
C3669       C  0.44541255  0.16020087  0.64276936    -0.00300
C3670       C  0.43678277  0.18414987  0.63573305    -0.08700
C3671       C  0.41332374  0.19552548  0.64743348     0.61700
H3672       H  0.44206308  0.21442528  0.61003765     0.12400
H3673       H  0.46766677  0.12810767  0.63169558     0.12400
C3674       C  0.48598620  0.14006894  0.58727790     0.61900
F3675       F  0.41599175  0.19909707  0.67272397    -0.23300
F3676       F  0.39352497  0.17952174  0.64365101    -0.20600
F3677       F  0.40712469  0.21833151  0.63671559    -0.20300
F3678       F  0.49292507  0.15101559  0.56497684    -0.20300
F3679       F  0.47393248  0.11796334  0.58210296    -0.20700
F3680       F  0.50780285  0.13434765  0.60005946    -0.23300
C3681       C  0.31400943  0.33600154  0.11687189    -0.06200
C3682       C  0.33941453  0.33163555  0.12316043    -0.00200
C3683       C  0.35147720  0.34879276  0.13926969    -0.08800
C3684       C  0.33761070  0.36957591  0.14804802    -0.06200
C3685       C  0.31210971  0.37369897  0.14192757    -0.00300
C3686       C  0.30017323  0.35662712  0.12568407    -0.08700
C3687       C  0.27285018  0.35951777  0.11780496     0.61700
H3688       H  0.30478976  0.32295553  0.10464972     0.12400
H3689       H  0.34652789  0.38259886  0.16055924     0.12400
C3690       C  0.37869884  0.34550126  0.14737968     0.61900
F3691       F  0.26500464  0.34013129  0.10276010    -0.23300
F3692       F  0.26971464  0.38153167  0.10442709    -0.20600
F3693       F  0.25762797  0.35975789  0.13861740    -0.20300
F3694       F  0.39419605  0.34617387  0.12670792    -0.20300
F3695       F  0.38178810  0.32292336  0.15983318    -0.20700
F3696       F  0.38621761  0.36415508  0.16347552    -0.23300
C3697       C  0.40589565  0.39403320  0.03360689    -0.06200
C3698       C  0.38587957  0.37985544  0.04315082    -0.00200
C3699       C  0.36444215  0.39269188  0.05238374    -0.08800
C3700       C  0.36171003  0.41822620  0.04721805    -0.06200
C3701       C  0.37988141  0.43141661  0.03369565    -0.00300
C3702       C  0.40345110  0.41990509  0.02943721    -0.08700
C3703       C  0.42630290  0.43411291  0.02085698     0.61700
H3704       H  0.42340951  0.38482555  0.02863734     0.12400
H3705       H  0.34393528  0.42724061  0.05153950     0.12400
C3706       C  0.34364035  0.37985628  0.06645389     0.61900
F3707       F  0.44580086  0.42974599  0.03753224    -0.23300
F3708       F  0.42198999  0.45966423  0.01983464    -0.20600
F3709       F  0.43352247  0.42585868  0.99749901    -0.20300
F3710       F  0.35353455  0.36184324  0.08228859    -0.20300
F3711       F  0.32742229  0.36913383  0.04961067    -0.20700
F3712       F  0.33013594  0.39660664  0.08096273    -0.23300
C3713       C  0.53410679  0.23678098  0.98066170    -0.06200
C3714       C  0.54796857  0.25543627  0.99328522    -0.00200
C3715       C  0.53341174  0.27556643  0.00310879    -0.08800
C3716       C  0.50637077  0.27564094  0.00127787    -0.06200
C3717       C  0.49233647  0.25594757  0.99046733    -0.00300
C3718       C  0.50708914  0.23668434  0.97916405    -0.08700
C3719       C  0.49393471  0.21538823  0.96626004     0.61700
H3720       H  0.54464244  0.22114822  0.97316388     0.12400
H3721       H  0.49583809  0.29050955  0.01004960     0.12400
C3722       C  0.54663896  0.29621921  0.01692375     0.61900
F3723       F  0.51075372  0.19920008  0.95483624    -0.23300
F3724       F  0.47789259  0.22501494  0.94812599    -0.20600
F3725       F  0.48017138  0.20190807  0.98342906    -0.20300
F3726       F  0.56374482  0.30738934  0.00115242    -0.20300
F3727       F  0.55925522  0.28635972  0.03744732    -0.20700
F3728       F  0.53000960  0.31441904  0.02520516    -0.23300
C3729       C  0.78284394  0.26130916  0.01043453    -0.06200
C3730       C  0.79707747  0.26623973  0.98869713    -0.00200
C3731       C  0.78281655  0.27573813  0.96787577    -0.08800
C3732       C  0.75588534  0.27633865  0.96808864    -0.06200
C3733       C  0.74138057  0.26971552  0.98906922    -0.00300
C3734       C  0.75575436  0.26384162  0.01112693    -0.08700
C3735       C  0.74220988  0.25962335  0.03527571     0.61700
H3736       H  0.79293367  0.25445165  0.02672243     0.12400
H3737       H  0.74580066  0.28102372  0.95106330     0.12400
C3738       C  0.79624792  0.28547752  0.94508242     0.61900
F3739       F  0.75842358  0.25384603  0.05480088    -0.23300
F3740       F  0.72596958  0.24014725  0.03219261    -0.20600
F3741       F  0.72890165  0.28109538  0.04136412    -0.20300
F3742       F  0.80751517  0.26594189  0.93250008    -0.20300
F3743       F  0.81425695  0.30226400  0.95255573    -0.20700
F3744       F  0.78003078  0.29774206  0.92872063    -0.23300
C3745       C  0.26004574  0.40577742  0.03616524    -0.06200
C3746       C  0.27866381  0.39868131  0.01895102    -0.00200
C3747       C  0.27566277  0.37629103  0.00525594    -0.08800
C3748       C  0.25169443  0.36652909  0.00324524    -0.06200
C3749       C  0.23181338  0.37650094  0.01703704    -0.00300
C3750       C  0.23633976  0.39454425  0.03556699    -0.08700
C3751       C  0.21591922  0.40244209  0.05354079     0.61700
H3752       H  0.26289201  0.42213328  0.04761713     0.12400
H3753       H  0.24839351  0.35126877  0.99043007     0.12400
C3754       C  0.29626653  0.36467442  0.98947933     0.61900
F3755       F  0.22394698  0.42086244  0.06958313    -0.23300
F3756       F  0.20896614  0.38204860  0.06777869    -0.20600
F3757       F  0.19530817  0.41149812  0.04037558    -0.20300
F3758       F  0.31957934  0.37388429  0.99576831    -0.20300
F3759       F  0.29151028  0.36952524  0.96445682    -0.20700
F3760       F  0.29685706  0.33905523  0.99310630    -0.23300
C3761       C  0.03158082  0.28817826  0.00432325    -0.06200
C3762       C  0.04421970  0.26530010  0.99963110    -0.00200
C3763       C  0.02901928  0.24353610  0.00194497    -0.08800
C3764       C  0.00233038  0.24588159  0.00729666    -0.06200
C3765       C  0.98952360  0.26933214  0.00981396    -0.00300
C3766       C  0.00556667  0.29051992  0.01009227    -0.08700
C3767       C  0.99598572  0.31670019  0.01568025     0.61700
H3768       H  0.04214321  0.30515601  0.00246209     0.12400
H3769       H  0.99081964  0.22944772  0.00655806     0.12400
C3770       C  0.04038635  0.21811206  0.99658831     0.61900
F3771       F  0.01033253  0.32670803  0.03466627    -0.23300
F3772       F  0.97124305  0.31713040  0.02336964    -0.20600
F3773       F  0.99825134  0.33156908  0.99458355    -0.20300
F3774       F  0.06073257  0.21381019  0.01218458    -0.20300
F3775       F  0.04825595  0.21726311  0.97199947    -0.20700
F3776       F  0.02332517  0.19917410  0.00039432    -0.23300
C3777       C  0.25489025  0.24451042  0.02321531    -0.06200
C3778       C  0.23965310  0.24993455  0.00215352    -0.00200
C3779       C  0.25377235  0.25657987  0.98023156    -0.08800
C3780       C  0.28097218  0.25906452  0.98071010    -0.06200
C3781       C  0.29593359  0.25451248  0.00230285    -0.00300
C3782       C  0.28178380  0.24627218  0.02371884    -0.08700
C3783       C  0.29378789  0.23945739  0.04853825     0.61700
H3784       H  0.24537253  0.23974480  0.04044626     0.12400
H3785       H  0.29062418  0.26572271  0.96425812     0.12400
C3786       C  0.23990990  0.26167140  0.95631551     0.61900
F3787       F  0.28692961  0.21547842  0.05520351    -0.23300
F3788       F  0.28546469  0.25588682  0.06667920    -0.20600
F3789       F  0.31950172  0.23998557  0.04787813    -0.20300
F3790       F  0.22184102  0.27986086  0.96043320    -0.20300
F3791       F  0.22885595  0.23978065  0.94866828    -0.20700
F3792       F  0.25556201  0.26984316  0.93744092    -0.23300
C3793       C  0.17582183  0.37016888  0.12608571    -0.06200
C3794       C  0.19060501  0.35496694  0.14190847    -0.00200
C3795       C  0.19307932  0.32906028  0.13692799    -0.08800
C3796       C  0.18195294  0.31973049  0.11504692    -0.06200
C3797       C  0.16845267  0.33538649  0.09853985    -0.00300
C3798       C  0.16483103  0.36103556  0.10431896    -0.08700
C3799       C  0.15004806  0.37914509  0.08757954     0.61700
H3800       H  0.17347651  0.38976148  0.13067214     0.12400
H3801       H  0.18427089  0.30020025  0.11022512     0.12400
C3802       C  0.20795688  0.31150854  0.15390577     0.61900
F3803       F  0.15317580  0.40379478  0.09460603    -0.23300
F3804       F  0.12481241  0.37383520  0.08923883    -0.20600
F3805       F  0.15770447  0.37724506  0.06298308    -0.20300
F3806       F  0.23225436  0.31981592  0.15646342    -0.20300
F3807       F  0.20906115  0.28743849  0.14454118    -0.20700
F3808       F  0.19671340  0.31051409  0.17712648    -0.23300
C3809       C  0.45705359  0.12429107  0.08776457    -0.06200
C3810       C  0.45979295  0.12904434  0.11351480    -0.00200
C3811       C  0.44562610  0.14890837  0.12445011    -0.08800
C3812       C  0.42933494  0.16297265  0.10903746    -0.06200
C3813       C  0.42690418  0.15807079  0.08346171    -0.00300
C3814       C  0.44044254  0.13811333  0.07264078    -0.08700
C3815       C  0.43642741  0.13060201  0.04559730     0.61700
H3816       H  0.46785773  0.10926673  0.07939591     0.12400
H3817       H  0.41900441  0.17872743  0.11666886     0.12400
C3818       C  0.44767197  0.15587391  0.15189671     0.61900
F3819       F  0.44787415  0.10785553  0.04031456    -0.23300
F3820       F  0.44626192  0.14834467  0.02966805    -0.20600
F3821       F  0.41100980  0.12834334  0.04094004    -0.20300
F3822       F  0.47177568  0.16360031  0.15697523    -0.20300
F3823       F  0.44194371  0.13568596  0.16690130    -0.20700
F3824       F  0.43130968  0.17509638  0.15823787    -0.23300
C3825       C  0.61301252  0.12913726  0.10351226    -0.06200
C3826       C  0.59916011  0.13286861  0.08127089    -0.00200
C3827       C  0.57396548  0.12460193  0.08015090    -0.08800
C3828       C  0.56350205  0.11322272  0.10141463    -0.06200
C3829       C  0.57727367  0.10959390  0.12353633    -0.00300
C3830       C  0.60238215  0.11754981  0.12476118    -0.08700
C3831       C  0.61742657  0.11411856  0.14861667     0.61700
H3832       H  0.63205909  0.13590482  0.10431052     0.12400
H3833       H  0.54434069  0.10671731  0.10086407     0.12400
C3834       C  0.55836134  0.12688121  0.05637948     0.61900
F3835       F  0.64108009  0.12429754  0.14667976    -0.23300
F3836       F  0.62014969  0.08890705  0.15395915    -0.20600
F3837       F  0.60502194  0.12567937  0.16815943    -0.20300
F3838       F  0.57160785  0.11685966  0.03654431    -0.20300
F3839       F  0.55262047  0.15168551  0.05138242    -0.20700
F3840       F  0.53595414  0.11420821  0.05832235    -0.23300
C3841       C  0.61481334  0.20184922  0.13159982    -0.06200
C3842       C  0.63604367  0.21312059  0.12158554    -0.00200
C3843       C  0.65357333  0.22456429  0.13780949    -0.08800
C3844       C  0.64680067  0.22816729  0.16276906    -0.06200
C3845       C  0.62329209  0.22086661  0.17171474    -0.00300
C3846       C  0.60862612  0.20459111  0.15688417    -0.08700
C3847       C  0.58583088  0.19128543  0.16679379     0.61700
H3848       H  0.60260545  0.19156032  0.11923274     0.12400
H3849       H  0.65891484  0.23875446  0.17493283     0.12400
C3850       C  0.67862583  0.23416640  0.12884044     0.61900
F3851       F  0.57826412  0.17245580  0.15091046    -0.23300
F3852       F  0.56627760  0.20815583  0.16913724    -0.20600
F3853       F  0.59126646  0.18051295  0.18977849    -0.20300
F3854       F  0.67485964  0.25071648  0.10925625    -0.20300
F3855       F  0.69339054  0.21418024  0.12132224    -0.20700
F3856       F  0.69160296  0.24656941  0.14737442    -0.23300
C3857       C  0.48919340  0.18618797  0.25558886    -0.06200
C3858       C  0.50848602  0.19566546  0.27066525    -0.00200
C3859       C  0.52513071  0.17660433  0.28099575    -0.08800
C3860       C  0.52392087  0.15073582  0.27352358    -0.06200
C3861       C  0.50582285  0.14169470  0.25665980    -0.00300
C3862       C  0.48711178  0.16020319  0.24909569    -0.08700
C3863       C  0.46507989  0.15410602  0.23237187     0.61700
H3864       H  0.47636467  0.19958470  0.24707142     0.12400
H3865       H  0.53841447  0.13779489  0.27992517     0.12400
C3866       C  0.54588338  0.18296362  0.29916245     0.61900
F3867       F  0.44357775  0.16595631  0.24106495    -0.23300
F3868       F  0.46034982  0.12883510  0.23167387    -0.20600
F3869       F  0.46988596  0.16270395  0.20849370    -0.20300
F3870       F  0.54454845  0.16737678  0.31983207    -0.20300
F3871       F  0.54415174  0.20738359  0.30738361    -0.20700
F3872       F  0.56887930  0.17922315  0.28783699    -0.23300
C3873       C  0.50752179  0.21522806  0.15282291    -0.06200
C3874       C  0.49977727  0.22600234  0.17519632    -0.00200
C3875       C  0.47396271  0.22866927  0.18040851    -0.08800
C3876       C  0.45694294  0.22458463  0.16113452    -0.06200
C3877       C  0.46516450  0.21880802  0.13686222    -0.00300
C3878       C  0.49042735  0.21052350  0.13364458    -0.08700
C3879       C  0.50083535  0.19917233  0.10996840     0.61700
H3880       H  0.52730726  0.21303645  0.14910198     0.12400
H3881       H  0.43728914  0.22866603  0.16464170     0.12400
C3882       C  0.46349708  0.23821261  0.20488963     0.61900
F3883       F  0.52062817  0.18297928  0.11550762    -0.23300
F3884       F  0.50957991  0.21799129  0.09461719    -0.20600
F3885       F  0.48292050  0.18537771  0.09776351    -0.20300
F3886       F  0.45187620  0.26118603  0.20092910    -0.20300
F3887       F  0.48177362  0.24079983  0.22295531    -0.20700
F3888       F  0.44589927  0.22160214  0.21377125    -0.23300
C3889       C  0.47021920  0.42714789  0.27915663    -0.06200
C3890       C  0.48253626  0.44618710  0.26475276    -0.00200
C3891       C  0.49907741  0.43664494  0.24621713    -0.08800
C3892       C  0.50442005  0.41010887  0.24474318    -0.06200
C3893       C  0.49468247  0.39136253  0.26136856    -0.00300
C3894       C  0.47586974  0.40055453  0.27787216    -0.08700
C3895       C  0.46273747  0.38256034  0.29514608     0.61700
H3896       H  0.45719330  0.43352799  0.29330183     0.12400
H3897       H  0.51754385  0.40384228  0.23069541     0.12400
C3898       C  0.51169775  0.45454795  0.22833322     0.61900
F3899       F  0.44307863  0.39403721  0.30768660    -0.23300
F3900       F  0.47967865  0.37319184  0.31255161    -0.20600
F3901       F  0.45307124  0.36302053  0.28148677    -0.20300
F3902       F  0.52577087  0.47148879  0.24143550    -0.20300
F3903       F  0.49360244  0.46736639  0.21458953    -0.20700
F3904       F  0.52754641  0.44226446  0.21189887    -0.23300
C3905       C  0.49889795  0.90831713  0.26715170    -0.06200
C3906       C  0.50659877  0.89084619  0.24830835    -0.00200
C3907       C  0.52220903  0.90149538  0.22961862    -0.08800
C3908       C  0.52755510  0.92810266  0.22942709    -0.06200
C3909       C  0.51780246  0.94607116  0.24698396    -0.00300
C3910       C  0.50439236  0.93478910  0.26709366    -0.08700
C3911       C  0.49473625  0.95001551  0.28880398     0.61700
H3912       H  0.48710438  0.90131847  0.28203072     0.12400
H3913       H  0.53757197  0.93561688  0.21355924     0.12400
C3914       C  0.53129207  0.88516100  0.20847251     0.61900
F3915       F  0.50185157  0.93849603  0.31098663    -0.23300
F3916       F  0.46884897  0.95146070  0.28775142    -0.20600
F3917       F  0.50430943  0.97387663  0.28891383    -0.20300
F3918       F  0.51109399  0.87854397  0.19375415    -0.20300
F3919       F  0.54265414  0.86374558  0.21804804    -0.20700
F3920       F  0.54858058  0.89729795  0.19363451    -0.23300
C3921       C  0.51063016  0.68588835  0.26271363    -0.06200
C3922       C  0.49290274  0.69531520  0.24530203    -0.00200
C3923       C  0.47857148  0.67614191  0.23302136    -0.08800
C3924       C  0.47935327  0.65027911  0.24113182    -0.06200
C3925       C  0.49598883  0.64116130  0.25977519    -0.00300
C3926       C  0.51349395  0.65963288  0.26873503    -0.08700
C3927       C  0.53605129  0.65261820  0.28478799     0.61700
H3928       H  0.52218391  0.69925739  0.27235288     0.12400
H3929       H  0.46619819  0.63728558  0.23311594     0.12400
C3930       C  0.46105900  0.68259471  0.21154740     0.61900
F3931       F  0.53186895  0.65994321  0.30914375    -0.23300
F3932       F  0.54140277  0.62731058  0.28435692    -0.20600
F3933       F  0.55705178  0.66469253  0.27588297    -0.20300
F3934       F  0.46546109  0.70619088  0.20189155    -0.20300
F3935       F  0.43651513  0.68142572  0.21959014    -0.20700
F3936       F  0.46450452  0.66557531  0.19245460    -0.23300
C3937       C  0.14519553  0.28298634  0.85803966    -0.06200
C3938       C  0.12444027  0.29154674  0.87194841    -0.00200
C3939       C  0.10130061  0.29621927  0.85957716    -0.08800
C3940       C  0.09961238  0.29081757  0.83401094    -0.06200
C3941       C  0.11987427  0.28044267  0.82060297    -0.00300
C3942       C  0.14344994  0.27772896  0.83247389    -0.08700
C3943       C  0.16713075  0.26934665  0.81916366     0.61700
H3944       H  0.16305901  0.27991949  0.86730757     0.12400
H3945       H  0.08156933  0.29271380  0.82480301     0.12400
C3946       C  0.07803931  0.30577444  0.87303553     0.61900
F3947       F  0.17310168  0.24508557  0.82625535    -0.23300
F3948       F  0.18673935  0.28468723  0.82581387    -0.20600
F3949       F  0.16469581  0.27057006  0.79345209    -0.20300
F3950       F  0.08334682  0.32671259  0.88675398    -0.20300
F3951       F  0.06918399  0.28747559  0.88892504    -0.20700
F3952       F  0.05912443  0.31235319  0.85640693    -0.23300
C3953       C  0.02981673  0.26642734  0.85493435    -0.06200
C3954       C  0.02033323  0.27542260  0.83223156    -0.00200
C3955       C  0.99515622  0.28340091  0.83018561    -0.08800
C3956       C  0.97902124  0.27795331  0.84998405    -0.06200
C3957       C  0.98778923  0.26443624  0.87086816    -0.00300
C3958       C  0.01372092  0.25915267  0.87394305    -0.08700
C3959       C  0.02435692  0.24383271  0.89562242     0.61700
H3960       H  0.04941117  0.26074539  0.85567308     0.12400
H3961       H  0.95924004  0.28275196  0.84863412     0.12400
C3962       C  0.98529459  0.29559849  0.80642079     0.61900
F3963       F  0.04813333  0.23445568  0.89045518    -0.23300
F3964       F  0.00926521  0.22359996  0.90072258    -0.20600
F3965       F  0.02610935  0.25883010  0.91640450    -0.20300
F3966       F  0.98661894  0.27888963  0.78683066    -0.20300
F3967       F  0.99966406  0.31620075  0.80081544    -0.20700
F3968       F  0.96058271  0.30348011  0.80888256    -0.23300
C3969       C  0.95592874  0.38385425  0.89199857    -0.06200
C3970       C  0.98048044  0.37926553  0.88356053    -0.00200
C3971       C  0.99255134  0.35636059  0.88944044    -0.08800
C3972       C  0.97847685  0.33747790  0.90081410    -0.06200
C3973       C  0.95327409  0.34136577  0.90785680    -0.00300
C3974       C  0.94219925  0.36541132  0.90463618    -0.08700
C3975       C  0.91650962  0.37195621  0.91508336     0.61700
H3976       H  0.94737877  0.40198021  0.88820856     0.12400
H3977       H  0.98714664  0.31931759  0.90409883     0.12400
C3978       C  0.02038601  0.35235581  0.88500125     0.61900
F3979       F  0.91187515  0.39749036  0.91444083    -0.23300
F3980       F  0.91504817  0.36416957  0.93974665    -0.20600
F3981       F  0.89808214  0.36047682  0.90121256    -0.20300
F3982       F  0.03371939  0.37101154  0.89668345    -0.20300
F3983       F  0.02540791  0.35285581  0.85975624    -0.20700
F3984       F  0.02867782  0.32959487  0.89450571    -0.23300
C3985       C  0.01904033  0.36189419  0.71868624    -0.06200
C3986       C  0.00298487  0.37238830  0.73691089    -0.00200
C3987       C  0.98481820  0.35522640  0.74681111    -0.08800
C3988       C  0.98613863  0.32872916  0.74170522    -0.06200
C3989       C  0.00373827  0.31774617  0.72522289    -0.00300
C3990       C  0.01896552  0.33569117  0.71211848    -0.08700
C3991       C  0.03574103  0.32800784  0.69066087     0.61700
H3992       H  0.03266905  0.37401916  0.71003274     0.12400
H3993       H  0.97427610  0.31616208  0.75211831     0.12400
C3994       C  0.96381954  0.36488270  0.76332884     0.61900
F3995       F  0.06035194  0.33385674  0.69607020    -0.23300
F3996       F  0.03445009  0.30277422  0.68553214    -0.20600
F3997       F  0.02828238  0.34101072  0.66940618    -0.20300
F3998       F  0.95330012  0.38629044  0.75281534    -0.20300
F3999       F  0.97293273  0.37023656  0.78682913    -0.20700
F4000       F  0.94496793  0.34749432  0.76587273    -0.23300
C4001       C  0.09924937  0.41896019  0.87826461    -0.06200
C4002       C  0.09802107  0.40639709  0.85521634    -0.00200
C4003       C  0.10667448  0.38133241  0.85400283    -0.08800
C4004       C  0.11396690  0.36901522  0.87634176    -0.06200
C4005       C  0.11273440  0.38092583  0.89971508    -0.00300
C4006       C  0.10627634  0.40663891  0.90059086    -0.08700
C4007       C  0.10558051  0.42070483  0.92516150     0.61700
H4008       H  0.09278256  0.43821574  0.87905864     0.12400
H4009       H  0.12062803  0.34982445  0.87557046     0.12400
C4010       C  0.10799711  0.36713012  0.82963416     0.61900
F4011       F  0.09628303  0.44484323  0.92222214    -0.23300
F4012       F  0.12955790  0.42216518  0.93489989    -0.20600
F4013       F  0.09037632  0.40840096  0.94200471    -0.20300
F4014       F  0.10941401  0.38317772  0.80931263    -0.20300
F4015       F  0.08694184  0.35253886  0.82722531    -0.20700
F4016       F  0.12912755  0.35179698  0.82932040    -0.23300
C4017       C  0.99026244  0.60500973  0.72578075    -0.06200
C4018       C  0.99662429  0.62264642  0.74476204    -0.00200
C4019       C  0.00980815  0.61200600  0.76540745    -0.08800
C4020       C  0.01457762  0.58533834  0.76689393    -0.06200
C4021       C  0.00588328  0.56715149  0.74921939    -0.00300
C4022       C  0.99442585  0.57820465  0.72744269    -0.08700
C4023       C  0.98569711  0.56312700  0.70529757     0.61700
H4024       H  0.98024412  0.61220742  0.70957703     0.12400
H4025       H  0.02400783  0.57815524  0.78341963     0.12400
C4026       C  0.01791561  0.62885766  0.78650095     0.61900
F4027       F  0.96028854  0.56719586  0.70147874    -0.23300
F4028       F  0.98995561  0.53781459  0.70825501    -0.20600
F4029       F  0.99842906  0.57092791  0.68421605    -0.20300
F4030       F  0.99728477  0.64118560  0.79642241    -0.20300
F4031       F  0.03451788  0.64630010  0.77734747    -0.20700
F4032       F  0.02966363  0.61558877  0.80560115    -0.23300
C4033       C  0.96946684  0.08727734  0.70866103    -0.06200
C4034       C  0.98061908  0.06921341  0.72546389    -0.00200
C4035       C  0.99614049  0.07973886  0.74423167    -0.08800
C4036       C  0.00164287  0.10614786  0.74400341    -0.06200
C4037       C  0.99244651  0.12371052  0.72568986    -0.00300
C4038       C  0.97514576  0.11367212  0.70829877    -0.08700
C4039       C  0.96383548  0.13063414  0.68842777     0.61700
H4040       H  0.95763714  0.08004860  0.69397324     0.12400
H4041       H  0.01487659  0.11308917  0.75760455     0.12400
C4042       C  0.00784987  0.06280895  0.76391074     0.61900
F4043       F  0.94693428  0.11817839  0.67344633    -0.23300
F4044       F  0.98262314  0.13997324  0.67339269    -0.20600
F4045       F  0.95129798  0.15031904  0.69973632    -0.20300
F4046       F  0.02514193  0.04687436  0.75302055    -0.20300
F4047       F  0.98934039  0.04881865  0.77515183    -0.20700
F4048       F  0.01991990  0.07625736  0.78229333    -0.23300
C4049       C  0.99777608  0.85772457  0.73814285    -0.06200
C4050       C  0.97597488  0.87297750  0.73301585    -0.00200
C4051       C  0.95301415  0.85977937  0.73306461    -0.08800
C4052       C  0.95251774  0.83337683  0.73800819    -0.06200
C4053       C  0.97394301  0.81788172  0.74361381    -0.00300
C4054       C  0.99707149  0.83110015  0.74426402    -0.08700
C4055       C  0.02069948  0.81744911  0.75259017     0.61700
H4056       H  0.01573706  0.86686552  0.73713062     0.12400
H4057       H  0.93453316  0.82443209  0.73714185     0.12400
C4058       C  0.92865082  0.87379974  0.72748887     0.61900
F4059       F  0.04154790  0.83252174  0.75091376    -0.23300
F4060       F  0.02479309  0.79658432  0.73799513    -0.20600
F4061       F  0.01806762  0.80991137  0.77719149    -0.20300
F4062       F  0.92951179  0.88456801  0.70394596    -0.20300
F4063       F  0.92516835  0.89235943  0.74506726    -0.20700
F4064       F  0.90809367  0.85829503  0.72827872    -0.23300
C4065       C  0.36284831  0.09184438  0.42694287    -0.06200
C4066       C  0.35959728  0.09562800  0.40126760    -0.00200
C4067       C  0.36419987  0.11952300  0.39069655    -0.08800
C4068       C  0.37248379  0.13887959  0.40645797    -0.06200
C4069       C  0.37522127  0.13504461  0.43228866    -0.00300
C4070       C  0.37032494  0.11123494  0.44270280    -0.08700
C4071       C  0.37223101  0.10659296  0.47056353     0.61700
H4072       H  0.35850314  0.07365327  0.43469397     0.12400
H4073       H  0.37610762  0.15730984  0.39890974     0.12400
C4074       C  0.35904829  0.12477901  0.36325137     0.61900
F4075       F  0.36536133  0.08252674  0.47697641    -0.23300
F4076       F  0.35645405  0.12307625  0.48282910    -0.20600
F4077       F  0.39663880  0.11011652  0.47846493    -0.20300
F4078       F  0.33401574  0.12065085  0.35801023    -0.20300
F4079       F  0.37373020  0.10915847  0.34870162    -0.20700
F4080       F  0.36432802  0.14925366  0.35679267    -0.23300
C4081       C  0.41298541  0.99017443  0.29262937    -0.06200
C4082       C  0.39081717  0.97802508  0.28623184    -0.00200
C4083       C  0.39001834  0.96461130  0.26333560    -0.08800
C4084       C  0.40816359  0.96974153  0.24507635    -0.06200
C4085       C  0.42745965  0.98642055  0.25001408    -0.00300
C4086       C  0.43134624  0.99475599  0.27480142    -0.08700
C4087       C  0.45247965  0.01174069  0.28225638     0.61700
H4088       H  0.41470663  0.99910039  0.31067486     0.12400
H4089       H  0.40604406  0.96232890  0.22637778     0.12400
C4090       C  0.36971478  0.94639255  0.25659759     0.61900
F4091       F  0.46068764  0.00601299  0.30621830    -0.23300
F4092       F  0.44397648  0.03626218  0.28171356    -0.20600
F4093       F  0.47263587  0.00907003  0.26644717    -0.20300
F4094       F  0.35359608  0.95760187  0.23955435    -0.20300
F4095       F  0.35647989  0.93856866  0.27728436    -0.20700
F4096       F  0.38029202  0.92536801  0.24578404    -0.23300
C4097       C  0.35765722  0.91519014  0.32995538    -0.06200
C4098       C  0.33171044  0.91402244  0.32593440    -0.00200
C4099       C  0.32171477  0.89499163  0.31102179    -0.08800
C4100       C  0.33827667  0.87975687  0.29773265    -0.06200
C4101       C  0.36447311  0.88126332  0.30078743    -0.00300
C4102       C  0.37439063  0.89867443  0.31808479    -0.08700
C4103       C  0.40213187  0.90007412  0.32435584     0.61700
H4104       H  0.36484438  0.93000777  0.34156916     0.12400
H4105       H  0.33047861  0.86618754  0.28501941     0.12400
C4106       C  0.29378667  0.89027126  0.30901513     0.61900
F4107       F  0.41516372  0.90858110  0.30385055    -0.23300
F4108       F  0.41112729  0.87671966  0.33146159    -0.20600
F4109       F  0.40668526  0.91633695  0.34384654    -0.20300
F4110       F  0.28390648  0.90345859  0.28891680    -0.20300
F4111       F  0.28146503  0.89736399  0.33062301    -0.20700
F4112       F  0.28943944  0.86505084  0.30554904    -0.23300
C4113       C  0.22625860  0.16147513  0.34203906    -0.06200
C4114       C  0.23270496  0.17307928  0.36464032    -0.00200
C4115       C  0.25736630  0.16923004  0.37446709    -0.08800
C4116       C  0.27162767  0.14924202  0.36518742    -0.06200
C4117       C  0.26275950  0.13458797  0.34568307    -0.00300
C4118       C  0.24116199  0.14222580  0.33210909    -0.08700
C4119       C  0.23291886  0.12911048  0.30844104     0.61700
H4120       H  0.20835036  0.16598120  0.33339562     0.12400
H4121       H  0.28904124  0.14372382  0.37431959     0.12400
C4122       C  0.26870752  0.18504248  0.39496642     0.61900
F4123       F  0.21159957  0.14012583  0.29810763    -0.23300
F4124       F  0.22767936  0.10438879  0.31360615    -0.20600
F4125       F  0.25182804  0.13032286  0.29085030    -0.20300
F4126       F  0.25768608  0.17977469  0.41769393    -0.20300
F4127       F  0.26546682  0.21004552  0.38902396    -0.20700
F4128       F  0.29426278  0.18059956  0.39747902    -0.23300
C4129       C  0.26359453  0.16537764  0.52969037    -0.06200
C4130       C  0.27423022  0.14255617  0.52210036    -0.00200
C4131       C  0.27705655  0.13850445  0.49605075    -0.08800
C4132       C  0.26283548  0.15341607  0.47934427    -0.06200
C4133       C  0.24630274  0.17191850  0.48822695    -0.00300
C4134       C  0.24702262  0.17838092  0.51389946    -0.08700
C4135       C  0.22753279  0.19467891  0.52681056     0.61700
H4136       H  0.26321567  0.16987368  0.54940682     0.12400
H4137       H  0.26252860  0.14867923  0.45967203     0.12400
C4138       C  0.29279231  0.11740494  0.48547571     0.61900
F4139       F  0.23922422  0.21092827  0.54293701    -0.23300
F4140       F  0.21195516  0.17954134  0.54072064    -0.20600
F4141       F  0.21296269  0.20851676  0.51038183    -0.20300
F4142       F  0.27739727  0.09806889  0.47838513    -0.20300
F4143       F  0.31018784  0.10873876  0.50276425    -0.20700
F4144       F  0.30576877  0.12569662  0.46472578    -0.23300
C4145       C  0.14378728  0.14562725  0.68072986    -0.06200
C4146       C  0.12654878  0.15759994  0.66466686    -0.00200
C4147       C  0.13222939  0.16039711  0.63903487    -0.08800
C4148       C  0.15510626  0.15040229  0.63022656    -0.06200
C4149       C  0.17181161  0.13735001  0.64622938    -0.00300
C4150       C  0.16665484  0.13600970  0.67214301    -0.08700
C4151       C  0.18459584  0.12519486  0.69169285     0.61700
H4152       H  0.13977695  0.14462123  0.70057685     0.12400
H4153       H  0.15917229  0.15102480  0.61041620     0.12400
C4154       C  0.11343702  0.17213728  0.62091653     0.61900
F4155       F  0.18867733  0.14294781  0.70983116    -0.23300
F4156       F  0.20786389  0.11859520  0.68233074    -0.20600
F4157       F  0.17393589  0.10439086  0.70265293    -0.20300
F4158       F  0.11120946  0.19751546  0.62518042    -0.20300
F4159       F  0.09024895  0.16123004  0.62401670    -0.20700
F4160       F  0.12063336  0.16882700  0.59631677    -0.23300
C4161       C  0.21422210  0.02929970  0.47056726    -0.06200
C4162       C  0.22664137  0.00958656  0.48372995    -0.00200
C4163       C  0.23869638  0.99146155  0.46817468    -0.08800
C4164       C  0.23791109  0.99381710  0.44119664    -0.06200
C4165       C  0.22709584  0.01466543  0.42825645    -0.00300
C4166       C  0.21423585  0.03218835  0.44387266    -0.08700
C4167       C  0.20172277  0.05554965  0.43322638     0.61700
H4168       H  0.20569158  0.04397173  0.48153170     0.12400
H4169       H  0.24773852  0.98017590  0.43004505     0.12400
C4170       C  0.25406914  0.97063847  0.48017692     0.61900
F4171       F  0.17866796  0.05935315  0.44452508    -0.23300
F4172       F  0.19763322  0.05385218  0.40775640    -0.20600
F4173       F  0.21667680  0.07593657  0.43790232    -0.20300
F4174       F  0.23894806  0.95674665  0.49577208    -0.20300
F4175       F  0.27337893  0.98070521  0.49403084    -0.20700
F4176       F  0.26448622  0.95476515  0.46256930    -0.23300
C4177       C  0.07526566  0.06572192  0.62466389    -0.06200
C4178       C  0.06308018  0.04906624  0.60865830    -0.00200
C4179       C  0.07248003  0.04587115  0.58408383    -0.08800
C4180       C  0.09694918  0.05353070  0.57907709    -0.06200
C4181       C  0.11108936  0.06588522  0.59720890    -0.00300
C4182       C  0.09912749  0.07456716  0.61912731    -0.08700
C4183       C  0.11073430  0.09243927  0.63747850     0.61700
H4184       H  0.06733322  0.07010199  0.64276706     0.12400
H4185       H  0.10554128  0.04835484  0.56146868     0.12400
C4186       C  0.05810870  0.03360484  0.56312481     0.61900
F4187       F  0.13257091  0.10254958  0.62849574    -0.23300
F4188       F  0.11569507  0.08014263  0.65977796    -0.20600
F4189       F  0.09402847  0.11189570  0.64196628    -0.20300
F4190       F  0.03272293  0.03253007  0.56815380    -0.20300
F4191       F  0.06755623  0.00972882  0.55925686    -0.20700
F4192       F  0.06086617  0.04741220  0.54135876    -0.23300
C4193       C  0.35598941  0.09864819  0.53687679    -0.06200
C4194       C  0.34794448  0.12244382  0.54470269    -0.00200
C4195       C  0.33185995  0.12509718  0.56533466    -0.08800
C4196       C  0.32257303  0.10338456  0.57625758    -0.06200
C4197       C  0.32926572  0.07952603  0.56732660    -0.00300
C4198       C  0.34680790  0.07687723  0.54789772    -0.08700
C4199       C  0.35709800  0.05143891  0.54024481     0.61700
H4200       H  0.37022957  0.09731850  0.52260522     0.12400
H4201       H  0.30990524  0.10495981  0.59190381     0.12400
C4202       C  0.32599553  0.15053507  0.57669798     0.61900
F4203       F  0.37649487  0.05349242  0.52324625    -0.23300
F4204       F  0.33852853  0.03742178  0.52937909    -0.20600
F4205       F  0.36620269  0.03885643  0.56109886    -0.20300
F4206       F  0.31352913  0.16560852  0.55954958    -0.20300
F4207       F  0.34802523  0.16192322  0.58366344    -0.20700
F4208       F  0.31115281  0.14867508  0.59773168    -0.23300
C4209       C  0.10610110  0.00897042  0.77524156    -0.06200
C4210       C  0.10037063  0.98715960  0.78871533    -0.00200
C4211       C  0.07656715  0.97636598  0.78597035    -0.08800
C4212       C  0.06102105  0.98536187  0.76653710    -0.06200
C4213       C  0.06920622  0.00411834  0.75007052    -0.00300
C4214       C  0.09068460  0.01784599  0.75587613    -0.08700
C4215       C  0.09739972  0.04120454  0.74130608     0.61700
H4216       H  0.12367778  0.01796891  0.77881365     0.12400
H4217       H  0.04372818  0.97588070  0.76224202     0.12400
C4218       C  0.06853995  0.95454461  0.80211474     0.61900
F4219       F  0.11866326  0.05237302  0.75082876    -0.23300
F4220       F  0.07775179  0.05827926  0.74273431    -0.20600
F4221       F  0.10171772  0.03547363  0.71652252    -0.20300
F4222       F  0.06857828  0.96165444  0.82692139    -0.20300
F4223       F  0.08492744  0.93453563  0.79903057    -0.20700
F4224       F  0.04461837  0.94676677  0.79608115    -0.23300
C4225       C  0.23340006  0.98380725  0.72134440    -0.06200
C4226       C  0.23774808  0.00628242  0.73497730    -0.00200
C4227       C  0.23922660  0.02823998  0.71966236    -0.08800
C4228       C  0.23465741  0.02714251  0.69315410    -0.06200
C4229       C  0.22935196  0.00487305  0.67975007    -0.00300
C4230       C  0.22927928  0.98272596  0.69460269    -0.08700
C4231       C  0.22341283  0.95812386  0.68230173     0.61700
H4232       H  0.23138437  0.96688407  0.73226265     0.12400
H4233       H  0.23447993  0.04457100  0.68268573     0.12400
C4234       C  0.24500366  0.05372428  0.73022925     0.61900
F4235       F  0.22345115  0.93854957  0.69934241    -0.23300
F4236       F  0.24126588  0.95303916  0.66427297    -0.20600
F4237       F  0.19999077  0.95953306  0.67112859    -0.20300
F4238       F  0.25032381  0.05290645  0.75549776    -0.20300
F4239       F  0.22476694  0.06974318  0.72626143    -0.20700
F4240       F  0.26570090  0.06324883  0.71805189    -0.23300
C4241       C  0.10742534  0.10860067  0.79881428    -0.06200
C4242       C  0.12396908  0.12445052  0.78608387    -0.00200
C4243       C  0.14960419  0.11743770  0.78418563    -0.08800
C4244       C  0.15757289  0.09416997  0.79399795    -0.06200
C4245       C  0.14108340  0.07840504  0.80674906    -0.00300
C4246       C  0.11571510  0.08594177  0.80987879    -0.08700
C4247       C  0.09755361  0.07022714  0.82480608     0.61700
H4248       H  0.08790678  0.11431514  0.80024045     0.12400
H4249       H  0.17697998  0.08819870  0.79212972     0.12400
C4250       C  0.16832081  0.13422069  0.77142101     0.61900
F4251       F  0.07344604  0.08022005  0.82423641    -0.23300
F4252       F  0.10533812  0.06902802  0.84945243    -0.20600
F4253       F  0.09673313  0.04633226  0.81523948    -0.20300
F4254       F  0.17118297  0.15572943  0.78521864    -0.20300
F4255       F  0.15968432  0.14041477  0.74781714    -0.20700
F4256       F  0.19167668  0.12283469  0.76914141    -0.23300
C4257       C  0.36569677  0.88582163  0.14220483    -0.06200
C4258       C  0.34829436  0.90093643  0.15509928    -0.00200
C4259       C  0.34829538  0.90053081  0.18162037    -0.08800
C4260       C  0.36629590  0.88556703  0.19415487    -0.06200
C4261       C  0.38290723  0.86971339  0.18122899    -0.00300
C4262       C  0.38252401  0.86959440  0.15479348    -0.08700
C4263       C  0.39896152  0.85180125  0.13987330     0.61700
H4264       H  0.36539137  0.88615190  0.12196445     0.12400
H4265       H  0.36664676  0.88514211  0.21440220     0.12400
C4266       C  0.32857747  0.91439296  0.19679616     0.61900
F4267       F  0.39900578  0.85791332  0.11469480    -0.23300
F4268       F  0.38993465  0.82780153  0.14232566    -0.20600
F4269       F  0.42347008  0.85243648  0.14841647    -0.20300
F4270       F  0.30496182  0.91040790  0.18692513    -0.20300
F4271       F  0.33345835  0.93967877  0.19648691    -0.20700
F4272       F  0.32832942  0.90629005  0.22145033    -0.23300
C4273       C  0.27578002  0.01687676  0.97101884    -0.06200
C4274       C  0.25333776  0.01874605  0.98527683    -0.00200
C4275       C  0.23079120  0.02130110  0.97083136    -0.08800
C4276       C  0.23131710  0.02079186  0.94392431    -0.06200
C4277       C  0.25345485  0.01726332  0.92968469    -0.00300
C4278       C  0.27616636  0.01607920  0.94396822    -0.08700
C4279       C  0.30086001  0.01315848  0.93034467     0.61700
H4280       H  0.29313469  0.01411092  0.98128407     0.12400
H4281       H  0.21379059  0.02093195  0.93371983     0.12400
C4282       C  0.20572428  0.02348037  0.98405488     0.61900
F4283       F  0.32115317  0.01414937  0.94649121    -0.23300
F4284       F  0.30307799  0.03221181  0.91291969    -0.20600
F4285       F  0.30171413  0.99048567  0.91816198    -0.20300
F4286       F  0.20608592  0.04364210  0.00009313    -0.20300
F4287       F  0.20115716  0.00198876  0.99765253    -0.20700
F4288       F  0.18604762  0.02701744  0.96740817    -0.23300
C4289       C  0.23617215  0.02030749  0.21927596    -0.06200
C4290       C  0.25775939  0.02020600  0.23511668    -0.00200
C4291       C  0.28080793  0.02585304  0.22227045    -0.08800
C4292       C  0.28181236  0.02804913  0.19574732    -0.06200
C4293       C  0.26107544  0.02591389  0.17955955    -0.00300
C4294       C  0.23733142  0.02387086  0.19223465    -0.08700
C4295       C  0.21262061  0.02627951  0.17846064     0.61700
H4296       H  0.21813763  0.01699007  0.22786536     0.12400
H4297       H  0.30008115  0.03022692  0.18717508     0.12400
C4298       C  0.30606658  0.02855029  0.23510477     0.61900
F4299       F  0.19836239  0.04511434  0.18924448    -0.23300
F4300       F  0.19966179  0.00414380  0.18023759    -0.20600
F4301       F  0.21573564  0.03238607  0.15358765    -0.20300
F4302       F  0.32063354  0.00748765  0.23060161    -0.20300
F4303       F  0.30405288  0.03194696  0.26041284    -0.20700
F4304       F  0.31833403  0.04915227  0.22554709    -0.23300
C4305       C  0.43378834  0.99174399  0.09330984    -0.06200
C4306       C  0.44179301  0.97813545  0.11459165    -0.00200
C4307       C  0.42581464  0.95970199  0.12472412    -0.08800
C4308       C  0.40062401  0.95996832  0.11742335    -0.06200
C4309       C  0.39188439  0.97629268  0.09872056    -0.00300
C4310       C  0.40876284  0.99128405  0.08525709    -0.08700
C4311       C  0.39998547  0.00789296  0.06371928     0.61700
H4312       H  0.44647538  0.00475490  0.08457202     0.12400
H4313       H  0.38755417  0.94752669  0.12656596     0.12400
C4314       C  0.43434845  0.94048675  0.14396548     0.61900
F4315       F  0.41895937  0.02298842  0.05493554    -0.23300
F4316       F  0.38038577  0.02321945  0.07138472    -0.20600
F4317       F  0.39197079  0.99317952  0.04417939    -0.20300
F4318       F  0.42830790  0.94870041  0.16769001    -0.20300
F4319       F  0.45991838  0.93609564  0.14238836    -0.20700
F4320       F  0.42257501  0.91796250  0.13983461    -0.23300
C4321       C  0.07313125  0.82432941  0.14102531    -0.06200
C4322       C  0.08041926  0.81811065  0.16547576    -0.00200
C4323       C  0.09555453  0.79677651  0.17037147    -0.08800
C4324       C  0.10287544  0.78204642  0.15006146    -0.06200
C4325       C  0.09574119  0.78853018  0.12556938    -0.00300
C4326       C  0.08074152  0.80997159  0.12078534    -0.08700
C4327       C  0.07425219  0.81865368  0.09439583     0.61700
H4328       H  0.06133439  0.84066341  0.13783827     0.12400
H4329       H  0.11528403  0.76605964  0.15292248     0.12400
C4330       C  0.10502212  0.79053839  0.19653551     0.61900
F4331       F  0.06043488  0.84075156  0.09418727    -0.23300
F4332       F  0.06039393  0.80065634  0.08240471    -0.20600
F4333       F  0.09599573  0.82277227  0.08117052    -0.20300
F4334       F  0.08526822  0.78458564  0.21203492    -0.20300
F4335       F  0.11737883  0.81093564  0.20616728    -0.20700
F4336       F  0.12159054  0.77038399  0.19655612    -0.23300
C4337       C  0.19354305  0.87252458  0.04571845    -0.06200
C4338       C  0.20613854  0.85617626  0.06250736    -0.00200
C4339       C  0.21357601  0.86513093  0.08617559    -0.08800
C4340       C  0.20993231  0.89058431  0.09116075    -0.06200
C4341       C  0.19772071  0.90698161  0.07421645    -0.00300
C4342       C  0.18766456  0.89733410  0.05194083    -0.08700
C4343       C  0.16761047  0.91059679  0.03635930     0.61700
H4344       H  0.18619188  0.86532073  0.02831753     0.12400
H4345       H  0.21667945  0.89786185  0.10862840     0.12400
C4346       C  0.22484926  0.84822350  0.10637958     0.61900
F4347       F  0.14547370  0.89769384  0.03900602    -0.23300
F4348       F  0.17430481  0.91053647  0.01143779    -0.20600
F4349       F  0.16291375  0.93497525  0.04346100    -0.20300
F4350       F  0.24402811  0.83362856  0.09669968    -0.20300
F4351       F  0.20651442  0.83296855  0.11603682    -0.20700
F4352       F  0.23454529  0.86176528  0.12604811    -0.23300
C4353       C  0.14222086  0.67747600  0.12803843    -0.06200
C4354       C  0.13052320  0.67364012  0.10484965    -0.00200
C4355       C  0.11196661  0.65521495  0.10261475    -0.08800
C4356       C  0.10352121  0.64327350  0.12442466    -0.06200
C4357       C  0.11394672  0.64848677  0.14795751    -0.00300
C4358       C  0.13402520  0.66532125  0.14983417    -0.08700
C4359       C  0.14545087  0.67169878  0.17491081     0.61700
H4360       H  0.15667615  0.69146984  0.12925885     0.12400
H4361       H  0.08817981  0.63020724  0.12325319     0.12400
C4362       C  0.10021340  0.64876821  0.07773069     0.61900
F4363       F  0.15581149  0.65040227  0.18571519    -0.23300
F4364       F  0.12705499  0.68134216  0.19042058    -0.20600
F4365       F  0.16416386  0.68927574  0.17265520    -0.20300
F4366       F  0.11707137  0.65171418  0.05834444    -0.20300
F4367       F  0.07963193  0.66421838  0.07362509    -0.20700
F4368       F  0.09263695  0.62410149  0.07765806    -0.23300
C4369       C  0.18808117  0.85141578  0.93504904    -0.06200
C4370       C  0.16893184  0.85384144  0.95289440    -0.00200
C4371       C  0.15135587  0.87431696  0.95032656    -0.08800
C4372       C  0.15384667  0.89113667  0.93019913    -0.06200
C4373       C  0.17344690  0.88908835  0.91314656    -0.00300
C4374       C  0.19064590  0.86870458  0.91522077    -0.08700
C4375       C  0.21225196  0.86557777  0.89714717     0.61700
H4376       H  0.20134106  0.83598119  0.93683528     0.12400
H4377       H  0.14100821  0.90689788  0.92817035     0.12400
C4378       C  0.13049687  0.87959534  0.96903703     0.61900
F4379       F  0.22153908  0.84127443  0.89731355    -0.23300
F4380       F  0.23130138  0.88138211  0.90404842    -0.20600
F4381       F  0.20461026  0.87120919  0.87299241    -0.20300
F4382       F  0.14025172  0.87934883  0.99292478    -0.20300
F4383       F  0.11197830  0.86189295  0.96699363    -0.20700
F4384       F  0.11922054  0.90278489  0.96527674    -0.23300
C4385       C  0.49995915  0.89850022  0.89085594    -0.06200
C4386       C  0.51639834  0.87963075  0.88222169    -0.00200
C4387       C  0.51877917  0.85694939  0.89564496    -0.08800
C4388       C  0.50104111  0.85193980  0.91403720    -0.06200
C4389       C  0.48221220  0.86950325  0.92000927    -0.00300
C4390       C  0.48322711  0.89392720  0.91033740    -0.08700
C4391       C  0.46679250  0.91509282  0.91980880     0.61700
H4392       H  0.49919585  0.91654104  0.88155403     0.12400
H4393       H  0.50069871  0.83337457  0.92231746     0.12400
C4394       C  0.53841486  0.83711030  0.88999346     0.61900
F4395       F  0.48080247  0.93661582  0.92170286    -0.23300
F4396       F  0.45726796  0.90981562  0.94326226    -0.20600
F4397       F  0.44715703  0.91940065  0.90334685    -0.20300
F4398       F  0.55952869  0.84730577  0.87926386    -0.20300
F4399       F  0.52837004  0.81963311  0.87407109    -0.20700
F4400       F  0.54587443  0.82522621  0.91186807    -0.23300
C4401       C  0.31999528  0.88947111  0.89067726    -0.06200
C4402       C  0.31585644  0.86358172  0.89147492    -0.00200
C4403       C  0.29363407  0.85394812  0.88046249    -0.08800
C4404       C  0.27622257  0.87090004  0.86972344    -0.06200
C4405       C  0.27981234  0.89673070  0.87074886    -0.00300
C4406       C  0.30226576  0.90628013  0.88075589    -0.08700
C4407       C  0.30752664  0.93412764  0.88113650     0.61700
H4408       H  0.33685280  0.89675738  0.89911245     0.12400
H4409       H  0.25890074  0.86422674  0.86167729     0.12400
C4410       C  0.28779658  0.82624096  0.88019713     0.61900
F4411       F  0.33174066  0.93903297  0.88898673    -0.23300
F4412       F  0.29120857  0.94596219  0.89733906    -0.20600
F4413       F  0.30455246  0.94408062  0.85739450    -0.20300
F4414       F  0.28244313  0.81811532  0.90415222    -0.20300
F4415       F  0.30805076  0.81290141  0.87088130    -0.20700
F4416       F  0.26720628  0.82117374  0.86528736    -0.23300
C4417       C  0.28523189  0.73739128  0.95454894    -0.06200
C4418       C  0.29807580  0.73852247  0.97805607    -0.00200
C4419       C  0.28188981  0.73563509  0.99915601    -0.08800
C4420       C  0.25493335  0.73413181  0.99589135    -0.06200
C4421       C  0.24213924  0.73562286  0.97239548    -0.00300
C4422       C  0.25841581  0.73678197  0.95138653    -0.08700
C4423       C  0.24836483  0.74014308  0.92508770     0.61700
H4424       H  0.29640218  0.73966210  0.93784160     0.12400
H4425       H  0.24347677  0.73398679  0.01246526     0.12400
C4426       C  0.29176132  0.73436792  0.02567677     0.61900
F4427       F  0.26095364  0.72410116  0.90911682    -0.23300
F4428       F  0.25229845  0.76451237  0.91740504    -0.20600
F4429       F  0.22303374  0.73515188  0.92335470    -0.20300
F4430       F  0.28082492  0.75315512  0.03969125    -0.20300
F4431       F  0.31749638  0.73666408  0.02698633    -0.20700
F4432       F  0.28550816  0.71156474  0.03608773    -0.23300
C4433       C  0.50932644  0.75430651  0.91367078    -0.06200
C4434       C  0.49198575  0.74626037  0.93137711    -0.00200
C4435       C  0.48982046  0.72036781  0.93653594    -0.08800
C4436       C  0.50430040  0.70358021  0.92264983    -0.06200
C4437       C  0.51578778  0.71124951  0.90025728    -0.00300
C4438       C  0.52071844  0.73727083  0.89716125    -0.08700
C4439       C  0.53391368  0.74831726  0.87481062     0.61700
H4440       H  0.51057952  0.77421509  0.90992215     0.12400
H4441       H  0.50224988  0.68386018  0.92672852     0.12400
C4442       C  0.46987867  0.70907228  0.95336712     0.61900
F4443       F  0.54566822  0.77031316  0.88116853    -0.23300
F4444       F  0.51652656  0.75345712  0.85617418    -0.20600
F4445       F  0.55213221  0.73225614  0.86605306    -0.20300
F4446       F  0.45400177  0.69463296  0.93913877    -0.20300
F4447       F  0.45550854  0.72680297  0.96544144    -0.20700
F4448       F  0.48103105  0.69387479  0.97129638    -0.23300
C4449       C  0.27558801  0.85361101  0.98782216    -0.06200
C4450       C  0.29049730  0.83697124  0.00187465    -0.00200
C4451       C  0.28488377  0.83266848  0.02726001    -0.08800
C4452       C  0.26804104  0.84891133  0.03891414    -0.06200
C4453       C  0.25767963  0.86964794  0.02613452    -0.00300
C4454       C  0.25837465  0.86968173  0.99957571    -0.08700
C4455       C  0.24292603  0.88708546  0.98311452     0.61700
H4456       H  0.27904734  0.85576824  0.96795860     0.12400
H4457       H  0.26608929  0.84735494  0.05895025     0.12400
C4458       C  0.29840731  0.81339373  0.04341327     0.61900
F4459       F  0.23444325  0.87421911  0.96243411    -0.23300
F4460       F  0.25754735  0.90669245  0.97502727    -0.20600
F4461       F  0.22211393  0.89622165  0.99552269    -0.20300
F4462       F  0.31567811  0.82523991  0.05842439    -0.20300
F4463       F  0.31065642  0.79544490  0.02931227    -0.20700
F4464       F  0.28130095  0.80141846  0.05858229    -0.23300
C4465       C  0.58869046  0.68664402  0.88961781    -0.06200
C4466       C  0.59815923  0.70817777  0.87837826    -0.00200
C4467       C  0.60024099  0.71008795  0.85219439    -0.08800
C4468       C  0.59298574  0.68979299  0.83794024    -0.06200
C4469       C  0.58313580  0.66822612  0.84896773    -0.00300
C4470       C  0.58164017  0.66607458  0.87540774    -0.08700
C4471       C  0.57394118  0.64228398  0.88893123     0.61700
H4472       H  0.58823396  0.68559746  0.90983774     0.12400
H4473       H  0.59445195  0.69087900  0.81776737     0.12400
C4474       C  0.60939142  0.73352458  0.83922067     0.61900
F4475       F  0.57479828  0.64484127  0.91466433    -0.23300
F4476       F  0.59019129  0.62301769  0.88252758    -0.20600
F4477       F  0.54972934  0.63598962  0.88276116    -0.20300
F4478       F  0.63518765  0.73458047  0.84123779    -0.20300
F4479       F  0.59848661  0.75448733  0.84990920    -0.20700
F4480       F  0.60320860  0.73382306  0.81405981    -0.23300
C4481       C  0.53470207  0.78654214  0.02259314    -0.06200
C4482       C  0.54801675  0.76889634  0.00789618    -0.00200
C4483       C  0.53201149  0.74976606  0.99755651    -0.08800
C4484       C  0.50487840  0.75071763  0.99940428    -0.06200
C4485       C  0.49142425  0.76895452  0.01293310    -0.00300
C4486       C  0.50763138  0.78607903  0.02629959    -0.08700
C4487       C  0.49701900  0.80401517  0.04556102     0.61700
H4488       H  0.54550598  0.80107628  0.03139940     0.12400
H4489       H  0.49390571  0.73713969  0.98966012     0.12400
C4490       C  0.54376675  0.72667699  0.98620494     0.61900
F4491       F  0.51364029  0.80639243  0.06531568    -0.23300
F4492       F  0.47464469  0.79551886  0.05526860    -0.20600
F4493       F  0.49321204  0.82733821  0.03497665    -0.20300
F4494       F  0.56099422  0.71709089  0.00304665    -0.20300
F4495       F  0.55528517  0.73221463  0.96383618    -0.20700
F4496       F  0.52645231  0.70825533  0.98171166    -0.23300
C4497       C  0.63240983  0.83362067  0.84352032    -0.06200
C4498       C  0.62006944  0.85629972  0.84772750    -0.00200
C4499       C  0.61733793  0.86543931  0.87236012    -0.08800
C4500       C  0.62428944  0.84968750  0.89241957    -0.06200
C4501       C  0.63477564  0.82598987  0.88814209    -0.00300
C4502       C  0.64031636  0.81836689  0.86336031    -0.08700
C4503       C  0.65333602  0.79375636  0.85762296     0.61700
H4504       H  0.63459066  0.82740242  0.82440029     0.12400
H4505       H  0.62117193  0.85550111  0.91152701     0.12400
C4506       C  0.60660767  0.89129120  0.87734298     0.61900
F4507       F  0.65485222  0.78930063  0.83218386    -0.23300
F4508       F  0.64001367  0.77463452  0.86816205    -0.20600
F4509       F  0.67742583  0.79372137  0.86721435    -0.20300
F4510       F  0.58263867  0.89330821  0.86773373    -0.20300
F4511       F  0.62155803  0.90900271  0.86608401    -0.20700
F4512       F  0.60554021  0.89639665  0.90265676    -0.23300
C4513       C  0.97414305  0.59248572  0.09229389    -0.06200
C4514       C  0.98135880  0.61266715  0.07725350    -0.00200
C4515       C  0.00637053  0.62110437  0.07882273    -0.08800
C4516       C  0.02010948  0.61523367  0.10051555    -0.06200
C4517       C  0.01046726  0.59876840  0.11840855    -0.00300
C4518       C  0.98858555  0.58500907  0.11290352    -0.08700
C4519       C  0.97976465  0.56347671  0.12910462     0.61700
H4520       H  0.95593429  0.58426815  0.08926059     0.12400
H4521       H  0.03813522  0.62380378  0.10379832     0.12400
C4522       C  0.01883418  0.63491333  0.05749124     0.61900
F4523       F  0.95715136  0.55401156  0.12089835    -0.23300
F4524       F  0.97654838  0.57126947  0.15346355    -0.20600
F4525       F  0.99738877  0.54431950  0.12825769    -0.20300
F4526       F  0.01216501  0.65993548  0.05738401    -0.20300
F4527       F  0.01198671  0.62431509  0.03500876    -0.20700
F4528       F  0.04461972  0.63305557  0.05937872    -0.23300
C4529       C  0.00421472  0.75144970  0.99864251    -0.06200
C4530       C  0.99156905  0.73126944  0.98777795    -0.00200
C4531       C  0.00795825  0.71409289  0.97442139    -0.08800
C4532       C  0.03498230  0.71463463  0.97700191    -0.06200
C4533       C  0.04763464  0.73357099  0.98999769    -0.00300
C4534       C  0.03125740  0.75343158  0.99888118    -0.08700
C4535       C  0.04237307  0.77787587  0.00707699     0.61700
H4536       H  0.99280652  0.76560219  0.00763056     0.12400
H4537       H  0.04622668  0.69987882  0.96867939     0.12400
C4538       C  0.99798166  0.69513386  0.95605895     0.61900
F4539       F  0.02433996  0.79653997  0.00935475    -0.23300
F4540       F  0.05906347  0.78558404  0.98907779    -0.20600
F4541       F  0.05446691  0.77509407  0.02979874    -0.20300
F4542       F  0.97235605  0.69726278  0.95234421    -0.20300
F4543       F  0.00379931  0.67123398  0.96437714    -0.20700
F4544       F  0.00933622  0.69881827  0.93313271    -0.23300
C4545       C  0.78607635  0.76051777  0.04827765    -0.06200
C4546       C  0.79988981  0.75816706  0.02546654    -0.00200
C4547       C  0.78478579  0.76057764  0.00348135    -0.08800
C4548       C  0.75766468  0.76347295  0.00523393    -0.06200
C4549       C  0.74380573  0.76285989  0.02813125    -0.00300
C4550       C  0.75906951  0.76169366  0.04995715    -0.08700
C4551       C  0.74659296  0.75967488  0.07521953     0.61700
H4552       H  0.79673059  0.75871408  0.06545387     0.12400
H4553       H  0.74675949  0.76388742  0.98821252     0.12400
C4554       C  0.79716400  0.75862371  0.97815114     0.61900
F4555       F  0.76372803  0.76139527  0.09460783    -0.23300
F4556       F  0.73471395  0.73691278  0.07716348    -0.20600
F4557       F  0.72902976  0.77875080  0.07776047    -0.20300
F4558       F  0.78033048  0.76334709  0.95887786    -0.20300
F4559       F  0.80716984  0.73488642  0.97510247    -0.20700
F4560       F  0.81625029  0.77580447  0.97646698    -0.23300
C4561       C  0.99627940  0.75957033  0.06697054    -0.06200
C4562       C  0.99882270  0.73591550  0.07795975    -0.00200
C4563       C  0.01312419  0.73329810  0.10002288    -0.08800
C4564       C  0.02031406  0.75487580  0.11282418    -0.06200
C4565       C  0.01243436  0.77892155  0.10480964    -0.00300
C4566       C  0.00225854  0.78138576  0.08014015    -0.08700
C4567       C  0.99368064  0.80609570  0.06881840     0.61700
H4568       H  0.98508621  0.76115107  0.05010909     0.12400
H4569       H  0.02972773  0.75248207  0.13066467     0.12400
C4570       C  0.01891954  0.70816864  0.11188203     0.61900
F4571       F  0.98965434  0.80430562  0.04334801    -0.23300
F4572       F  0.01162033  0.82415783  0.07243600    -0.20600
F4573       F  0.97117307  0.81315596  0.07956545    -0.20300
F4574       F  0.01268658  0.68867527  0.09637897    -0.20300
F4575       F  0.00560781  0.70592332  0.13388169    -0.20700
F4576       F  0.04432212  0.70630309  0.11710695    -0.23300
C4577       C  0.89029866  0.03644535  0.13862268    -0.06200
C4578       C  0.86599483  0.04504888  0.13280969    -0.00200
C4579       C  0.85329654  0.06179623  0.14904594    -0.08800
C4580       C  0.86530794  0.06872666  0.17113464    -0.06200
C4581       C  0.88934868  0.05977054  0.17712844    -0.00300
C4582       C  0.90242924  0.04373853  0.16060680    -0.08700
C4583       C  0.92924498  0.03511226  0.16567287     0.61700
H4584       H  0.89956542  0.02360436  0.12594941     0.12400
H4585       H  0.85593954  0.08121148  0.18409344     0.12400
C4586       C  0.82754978  0.07290257  0.14304186     0.61900
F4587       F  0.93933054  0.02227898  0.14561249    -0.23300
F4588       F  0.92994147  0.01939345  0.18626587    -0.20600
F4589       F  0.94418010  0.05557603  0.17004595    -0.20300
F4590       F  0.80942692  0.05486304  0.14585927    -0.20300
F4591       F  0.82709619  0.08200170  0.11878436    -0.20700
F4592       F  0.82147388  0.09254859  0.15874714    -0.23300
C4593       C  0.84297957  0.09537145  0.96340397    -0.06200
C4594       C  0.86208696  0.08076160  0.97482397    -0.00200
C4595       C  0.88589780  0.09136628  0.97874705    -0.08800
C4596       C  0.88871086  0.11694362  0.97442496    -0.06200
C4597       C  0.86909697  0.13215073  0.96496106    -0.00300
C4598       C  0.84603593  0.12103898  0.95840208    -0.08700
C4599       C  0.82459091  0.13604520  0.94683857     0.61700
H4600       H  0.82481132  0.08709033  0.96031562     0.12400
H4601       H  0.90659520  0.12524214  0.97897395     0.12400
C4602       C  0.90841641  0.07680698  0.98877039     0.61900
F4603       F  0.80506466  0.12100600  0.93937317    -0.23300
F4604       F  0.83278124  0.14866968  0.92601778    -0.20600
F4605       F  0.81551262  0.15307322  0.96393378    -0.20300
F4606       F  0.90618849  0.05137171  0.98500253    -0.20300
F4607       F  0.91101581  0.08142297  0.01402868    -0.20700
F4608       F  0.92999125  0.08437122  0.97670579    -0.23300
C4609       C  0.77117183  0.11020833  0.97948935    -0.06200
C4610       C  0.76197495  0.08666447  0.97378807    -0.00200
C4611       C  0.73757529  0.08385752  0.96416446    -0.08800
C4612       C  0.72183444  0.10494424  0.96343298    -0.06200
C4613       C  0.72972413  0.12754488  0.97376680    -0.00300
C4614       C  0.75502315  0.13070860  0.98125806    -0.08700
C4615       C  0.76468578  0.15430870  0.99354540     0.61700
H4616       H  0.79020377  0.11141631  0.98657352     0.12400
H4617       H  0.70249359  0.10329360  0.95741269     0.12400
C4618       C  0.72760469  0.05834237  0.95747488     0.61900
F4619       F  0.78732904  0.15014690  0.00576829    -0.23300
F4620       F  0.74800971  0.16308427  0.01122106    -0.20600
F4621       F  0.76833993  0.17232579  0.97545737    -0.20300
F4622       F  0.72725736  0.04314038  0.97848959    -0.20300
F4623       F  0.74295495  0.04758028  0.93965156    -0.20700
F4624       F  0.70345218  0.05985997  0.94793161    -0.23300
C4625       C  0.89253062  0.94683725  0.11317267    -0.06200
C4626       C  0.87268098  0.93119030  0.10648230    -0.00200
C4627       C  0.87653191  0.90498741  0.10599315    -0.08800
C4628       C  0.90015953  0.89527614  0.11279383    -0.06200
C4629       C  0.91957974  0.91091720  0.12070576    -0.00300
C4630       C  0.91628939  0.93716841  0.11941245    -0.08700
C4631       C  0.93735050  0.95570091  0.12302698     0.61700
H4632       H  0.88997443  0.96697173  0.11183415     0.12400
H4633       H  0.90280485  0.87514949  0.11373287     0.12400
C4634       C  0.85625276  0.88658360  0.09908961     0.61900
F4635       F  0.93898158  0.97069970  0.10195116    -0.23300
F4636       F  0.96061503  0.94444117  0.12651897    -0.20600
F4637       F  0.93205816  0.97058915  0.14340985    -0.20300
F4638       F  0.86199518  0.87597860  0.07627581    -0.20300
F4639       F  0.83264018  0.89754563  0.09761761    -0.20700
F4640       F  0.85527212  0.86786999  0.11701434    -0.23300
C4641       C  0.83054845  0.90095477  0.19831317    -0.06200
C4642       C  0.81675942  0.88198596  0.20997641    -0.00200
C4643       C  0.82668344  0.85741740  0.21089753    -0.08800
C4644       C  0.85186589  0.85362094  0.20458921    -0.06200
C4645       C  0.86689740  0.87345092  0.19641303    -0.00300
C4646       C  0.85561483  0.89710985  0.19144588    -0.08700
C4647       C  0.87001896  0.91888813  0.18076615     0.61700
H4648       H  0.82269097  0.91972647  0.19724202     0.12400
H4649       H  0.86007886  0.83512606  0.20722055     0.12400
C4650       C  0.81172916  0.83499098  0.21922654     0.61900
F4651       F  0.85409154  0.93654248  0.16991520    -0.23300
F4652       F  0.88622127  0.91063862  0.16255256    -0.20600
F4653       F  0.88348773  0.93018675  0.19957132    -0.20300
F4654       F  0.78637493  0.84045335  0.22129589    -0.20300
F4655       F  0.82072045  0.82646211  0.24204052    -0.20700
F4656       F  0.81443401  0.81612052  0.20183847    -0.23300
C4657       C  0.71430210  0.96860534  0.17301166    -0.06200
C4658       C  0.72258916  0.98731470  0.19028594    -0.00200
C4659       C  0.73463298  0.00791120  0.17869229    -0.08800
C4660       C  0.74024603  0.00755743  0.15216366    -0.06200
C4661       C  0.73476881  0.98719605  0.13567637    -0.00300
C4662       C  0.72091309  0.96763809  0.14688222    -0.08700
C4663       C  0.71513527  0.94455631  0.13181121     0.61700
H4664       H  0.70442989  0.95285027  0.18082310     0.12400
H4665       H  0.75088865  0.02282270  0.14437078     0.12400
C4666       C  0.74236457  0.02984065  0.19449716     0.61900
F4667       F  0.70123527  0.92749845  0.14531499    -0.23300
F4668       F  0.73733954  0.93296988  0.12473541    -0.20600
F4669       F  0.70160721  0.95128386  0.11067699    -0.20300
F4670       F  0.76132881  0.02251938  0.21072288    -0.20300
F4671       F  0.72198766  0.03832612  0.20815158    -0.20700
F4672       F  0.75083933  0.04948949  0.17998762    -0.23300
C4673       C  0.80747337  0.02977844  0.25378462    -0.06200
C4674       C  0.81759550  0.00935470  0.24066795    -0.00200
C4675       C  0.84247416  0.01025831  0.23217902    -0.08800
C4676       C  0.85794778  0.02866422  0.24183827    -0.06200
C4677       C  0.84927855  0.04593657  0.25965496    -0.00300
C4678       C  0.82316472  0.04821435  0.26385470    -0.08700
C4679       C  0.81218191  0.06855685  0.28020975     0.61700
H4680       H  0.78794168  0.02915398  0.25927648     0.12400
H4681       H  0.87742807  0.02837359  0.23666239     0.12400
C4682       C  0.85363533  0.99139357  0.21419547     0.61900
F4683       F  0.78628539  0.06727650  0.28144749    -0.23300
F4684       F  0.81820926  0.09170011  0.27044934    -0.20600
F4685       F  0.82170502  0.06628037  0.30419853    -0.20300
F4686       F  0.83608982  0.97443728  0.20601203    -0.20300
F4687       F  0.87316503  0.97844048  0.22570016    -0.20700
F4688       F  0.86285738  0.00388170  0.19352000    -0.23300
C4689       C  0.61255167  0.92901155  0.63320360    -0.06200
C4690       C  0.60253617  0.95044811  0.62181237    -0.00200
C4691       C  0.57791372  0.95874427  0.62727992    -0.08800
C4692       C  0.56512110  0.94660298  0.64663292    -0.06200
C4693       C  0.57594257  0.92608572  0.65947647    -0.00300
C4694       C  0.59948281  0.91610961  0.65163795    -0.08700
C4695       C  0.61148923  0.89262353  0.66293406     0.61700
H4696       H  0.63099563  0.92251664  0.62746701     0.12400
H4697       H  0.54689350  0.95354948  0.65248555     0.12400
C4698       C  0.56559729  0.98054188  0.61336455     0.61900
F4699       F  0.63434416  0.88680151  0.65201760    -0.23300
F4700       F  0.59590808  0.87249748  0.65926092    -0.20600
F4701       F  0.61570267  0.89587005  0.68819935    -0.20300
F4702       F  0.56304246  0.97474876  0.58836291    -0.20300
F4703       F  0.58011544  0.00162804  0.61550815    -0.20700
F4704       F  0.54193375  0.98607597  0.62260359    -0.23300
C4705       C  0.71218739  0.01984869  0.42411850    -0.06200
C4706       C  0.73138472  0.01208192  0.44176833    -0.00200
C4707       C  0.75285182  0.00104618  0.42981403    -0.08800
C4708       C  0.75224323  0.99491604  0.40348719    -0.06200
C4709       C  0.73180179  0.00029708  0.38681829    -0.00300
C4710       C  0.71165190  0.01377692  0.39784433    -0.08700
C4711       C  0.68896621  0.02083944  0.38207876     0.61700
H4712       H  0.69628894  0.03023046  0.43131044     0.12400
H4713       H  0.76835413  0.98510975  0.39576807     0.12400
C4714       C  0.77753863  0.99615219  0.44288359     0.61900
F4715       F  0.67059616  0.03294695  0.39588519    -0.23300
F4716       F  0.67859029  0.99958889  0.37195747    -0.20600
F4717       F  0.69623982  0.03662817  0.36295712    -0.20300
F4718       F  0.78292024  0.97084396  0.44245175    -0.20300
F4719       F  0.77772429  0.00451261  0.46717042    -0.20700
F4720       F  0.79627860  0.00850261  0.43015415    -0.23300
C4721       C  0.61805399  0.03985113  0.64217702    -0.06200
C4722       C  0.63330665  0.05498791  0.62722017    -0.00200
C4723       C  0.63181698  0.08126335  0.62945685    -0.08800
C4724       C  0.61378999  0.09149225  0.64565875    -0.06200
C4725       C  0.59693915  0.07641470  0.65911884    -0.00300
C4726       C  0.59937391  0.04999950  0.65770417    -0.08700
C4727       C  0.58150374  0.03242435  0.67091559     0.61700
H4728       H  0.61980463  0.01975328  0.64029439     0.12400
H4729       H  0.61216474  0.11162345  0.64727038     0.12400
C4730       C  0.64941237  0.09838765  0.61529598     0.61900
F4731       F  0.58633475  0.00761090  0.66532708    -0.23300
F4732       F  0.55703335  0.03798381  0.66393305    -0.20600
F4733       F  0.58401078  0.03473615  0.69636875    -0.20300
F4734       F  0.64452427  0.09752700  0.58995357    -0.20300
F4735       F  0.67399751  0.09096425  0.61972786    -0.20700
F4736       F  0.64674048  0.12304189  0.62266610    -0.23300
C4737       C  0.66229811  0.13330993  0.75635278    -0.06200
C4738       C  0.67754188  0.12711961  0.73575732    -0.00200
C4739       C  0.66600992  0.12056652  0.71285885    -0.08800
C4740       C  0.63980515  0.11846444  0.71207670    -0.06200
C4741       C  0.62511189  0.12242704  0.73342808    -0.00300
C4742       C  0.63632854  0.13017676  0.75584658    -0.08700
C4743       C  0.62093883  0.13439084  0.77931655     0.61700
H4744       H  0.67100513  0.13805632  0.77392434     0.12400
H4745       H  0.63068186  0.11367625  0.69464064     0.12400
C4746       C  0.68046394  0.11539635  0.68905953     0.61900
F4747       F  0.63546060  0.14249919  0.79909146    -0.23300
F4748       F  0.60978288  0.11224840  0.78634742    -0.20600
F4749       F  0.60255180  0.15225977  0.77480162    -0.20300
F4750       F  0.66996233  0.12916742  0.66963629    -0.20300
F4751       F  0.67903619  0.09024547  0.68341637    -0.20700
F4752       F  0.70541113  0.12194767  0.69092598    -0.23300
C4753       C  0.69237218  0.12233491  0.88708713    -0.06200
C4754       C  0.71622494  0.13074200  0.88064924    -0.00200
C4755       C  0.72546724  0.15285567  0.89107899    -0.08800
C4756       C  0.70896797  0.16791652  0.90492378    -0.06200
C4757       C  0.68425843  0.16046177  0.91046498    -0.00300
C4758       C  0.67642418  0.13627807  0.90275250    -0.08700
C4759       C  0.65194750  0.12461982  0.91113295     0.61700
H4760       H  0.68624832  0.10475834  0.87940109     0.12400
H4761       H  0.71568678  0.18549447  0.91196924     0.12400
C4762       C  0.75300149  0.15950852  0.88887923     0.61900
F4763       F  0.64859842  0.10112938  0.90100472    -0.23300
F4764       F  0.63178781  0.13945425  0.90374430    -0.20600
F4765       F  0.65208479  0.12187078  0.93686877    -0.20300
F4766       F  0.75940857  0.16325059  0.86415137    -0.20300
F4767       F  0.76750629  0.14011242  0.89863543    -0.20700
F4768       F  0.75859869  0.18098940  0.90197299    -0.23300
C4769       C  0.77205005  0.97247838  0.89903022    -0.06200
C4770       C  0.75470430  0.98893207  0.88731906    -0.00200
C4771       C  0.73432981  0.99714600  0.90313609    -0.08800
C4772       C  0.73410613  0.99174400  0.92961793    -0.06200
C4773       C  0.75291382  0.97739091  0.94189659    -0.00300
C4774       C  0.77105086  0.96611611  0.92524891    -0.08700
C4775       C  0.79085211  0.94776369  0.93460957     0.61700
H4776       H  0.78758299  0.96547425  0.88796032     0.12400
H4777       H  0.72023351  0.00081039  0.94133013     0.12400
C4778       C  0.71276908  0.01249022  0.89216698     0.61900
F4779       F  0.78906458  0.92575431  0.92132495    -0.23300
F4780       F  0.78810639  0.94205348  0.95965353    -0.20600
F4781       F  0.81441600  0.95755417  0.93083436    -0.20300
F4782       F  0.70372328  0.00077179  0.87108753    -0.20300
F4783       F  0.72067784  0.03618759  0.88589249    -0.20700
F4784       F  0.69310020  0.01495580  0.90885718    -0.23300
C4785       C  0.76926259  0.02157775  0.67529396    -0.06200
C4786       C  0.76163620  0.00308867  0.69325061    -0.00200
C4787       C  0.75032631  0.98173537  0.68236289    -0.08800
C4788       C  0.74530457  0.98085245  0.65571962    -0.06200
C4789       C  0.75035548  0.00067714  0.63834264    -0.00300
C4790       C  0.76322115  0.02122035  0.64891325    -0.08700
C4791       C  0.76850226  0.04388501  0.63278991     0.61700
H4792       H  0.77801756  0.03811596  0.68269504     0.12400
H4793       H  0.73567904  0.96481172  0.64837013     0.12400
C4794       C  0.74302113  0.96004543  0.69893934     0.61900
F4795       F  0.78145068  0.06197228  0.64575963    -0.23300
F4796       F  0.74607848  0.05434548  0.62449884    -0.20600
F4797       F  0.78275554  0.03683700  0.61240441    -0.20300
F4798       F  0.72662413  0.96811693  0.71717492    -0.20300
F4799       F  0.76427912  0.95009340  0.71028328    -0.20700
F4800       F  0.73154954  0.94128290  0.68553595    -0.23300
C4801       C  0.82663785  0.14421093  0.84781439    -0.06200
C4802       C  0.83411623  0.11968971  0.85439470    -0.00200
C4803       C  0.85355744  0.11593410  0.87206308    -0.08800
C4804       C  0.86428697  0.13704047  0.88339535    -0.06200
C4805       C  0.85584074  0.16144098  0.87762374    -0.00300
C4806       C  0.83736565  0.16523976  0.85904274    -0.08700
C4807       C  0.82978397  0.19144798  0.85067758     0.61700
H4808       H  0.81209066  0.14677627  0.83381167     0.12400
H4809       H  0.87883524  0.13464923  0.89743240     0.12400
C4810       C  0.86289543  0.08987003  0.87863242     0.61900
F4811       F  0.81226469  0.19115989  0.83153715    -0.23300
F4812       F  0.85072503  0.20387884  0.84215943    -0.20600
F4813       F  0.81952387  0.20450304  0.87046673    -0.20300
F4814       F  0.86980000  0.07742792  0.85707866    -0.20300
F4815       F  0.84402802  0.07686009  0.89041674    -0.20700
F4816       F  0.88352991  0.09036111  0.89440735    -0.23300
C4817       C  0.66739755  0.99466147  0.72943237    -0.06200
C4818       C  0.66111104  0.01905415  0.73673865    -0.00200
C4819       C  0.63571605  0.02586869  0.74026765    -0.08800
C4820       C  0.61787753  0.00686759  0.74129934    -0.06200
C4821       C  0.62503292  0.98162679  0.73850118    -0.00300
C4822       C  0.64942661  0.97568822  0.72977876    -0.08700
C4823       C  0.65647248  0.94957091  0.72111312     0.61700
H4824       H  0.68687089  0.98995505  0.72609981     0.12400
H4825       H  0.59867623  0.01165644  0.74615542     0.12400
C4826       C  0.62725581  0.05273391  0.74467954     0.61900
F4827       F  0.63736971  0.94010263  0.70654100    -0.23300
F4828       F  0.66060401  0.93397920  0.74145360    -0.20600
F4829       F  0.67800844  0.94975148  0.70675206    -0.20300
F4830       F  0.64686073  0.06938835  0.74435731    -0.20300
F4831       F  0.61527666  0.05445314  0.76749580    -0.20700
F4832       F  0.61083346  0.06009333  0.72604500    -0.23300
C4833       C  0.29157737  0.58193851  0.52771097    -0.06200
C4834       C  0.28577122  0.60452639  0.53962175    -0.00200
C4835       C  0.26315911  0.60623449  0.55367508    -0.08800
C4836       C  0.24466280  0.58833378  0.54970757    -0.06200
C4837       C  0.24864108  0.56900662  0.53278669    -0.00300
C4838       C  0.27307004  0.56426075  0.52348905    -0.08700
C4839       C  0.28007768  0.54229153  0.50705805     0.61700
H4840       H  0.30952510  0.57946614  0.51849664     0.12400
H4841       H  0.22618882  0.59099928  0.55781507     0.12400
C4842       C  0.25714595  0.62645246  0.57238087     0.61900
F4843       F  0.29919026  0.52861693  0.51839535    -0.23300
F4844       F  0.28844009  0.55098304  0.48419304    -0.20600
F4845       F  0.26035714  0.52647165  0.50297183    -0.20300
F4846       F  0.23672030  0.64045098  0.56413513    -0.20300
F4847       F  0.27706197  0.64197723  0.57638173    -0.20700
F4848       F  0.25118297  0.61550990  0.59502179    -0.23300
C4849       C  0.40392019  0.64169883  0.40360433    -0.06200
C4850       C  0.40467755  0.63105959  0.42772865    -0.00200
C4851       C  0.41567157  0.60710748  0.43146302    -0.08800
C4852       C  0.42695127  0.59527180  0.41098382    -0.06200
C4853       C  0.42647841  0.60602347  0.38696256    -0.00300
C4854       C  0.41406103  0.62913899  0.38288589    -0.08700
C4855       C  0.41022899  0.63956964  0.35673900     0.61700
H4856       H  0.39471778  0.65972779  0.40101469     0.12400
H4857       H  0.43638454  0.57736508  0.41357594     0.12400
C4858       C  0.41565597  0.59409979  0.45680094     0.61900
F4859       F  0.39473099  0.66050646  0.35665063    -0.23300
F4860       F  0.39925319  0.62164886  0.34188203    -0.20600
F4861       F  0.43294129  0.64621593  0.34656374    -0.20300
F4862       F  0.42532295  0.60971271  0.47484834    -0.20300
F4863       F  0.42998840  0.57232090  0.45675875    -0.20700
F4864       F  0.39139087  0.58777727  0.46307043    -0.23300
C4865       C  0.36014750  0.70561363  0.36725462    -0.06200
C4866       C  0.36838356  0.72120975  0.38671307    -0.00200
C4867       C  0.37946253  0.74441830  0.38092633    -0.08800
C4868       C  0.38238284  0.75086164  0.35578492    -0.06200
C4869       C  0.37518739  0.73494596  0.33636613    -0.00300
C4870       C  0.36365907  0.71206362  0.34192009    -0.08700
C4871       C  0.35460053  0.69519073  0.32126351     0.61700
H4872       H  0.35109293  0.68823910  0.37209193     0.12400
H4873       H  0.39068333  0.76858989  0.35107716     0.12400
C4874       C  0.38737566  0.76286805  0.40095188     0.61900
F4875       F  0.34275108  0.67426987  0.33065296    -0.23300
F4876       F  0.37475083  0.68732366  0.30698966    -0.20600
F4877       F  0.33772579  0.70819008  0.30619833    -0.20300
F4878       F  0.40711894  0.75298470  0.41479690    -0.20300
F4879       F  0.36738400  0.76806250  0.41656110    -0.20700
F4880       F  0.39518620  0.78531251  0.39078797    -0.23300
C4881       C  0.29178087  0.68049326  0.61950482    -0.06200
C4882       C  0.31172506  0.66849393  0.60702366    -0.00200
C4883       C  0.31729302  0.64287102  0.61216156    -0.08800
C4884       C  0.30188172  0.63006659  0.62884165    -0.06200
C4885       C  0.28170323  0.64190280  0.64063192    -0.00300
C4886       C  0.27660959  0.66757442  0.63647875    -0.08700
C4887       C  0.25476636  0.68090353  0.64910295     0.61700
H4888       H  0.28772143  0.69995920  0.61525010     0.12400
H4889       H  0.30549204  0.61048815  0.63298970     0.12400
C4890       C  0.33839103  0.62846189  0.59939858     0.61900
F4891       F  0.25194979  0.70534018  0.64074479    -0.23300
F4892       F  0.25863955  0.68147316  0.67464281    -0.20600
F4893       F  0.23273227  0.66847448  0.64410696    -0.20300
F4894       F  0.36117290  0.63872136  0.60571287    -0.20300
F4895       F  0.33521027  0.62931938  0.57381496    -0.20700
F4896       F  0.33914307  0.60350922  0.60646320    -0.23300
C4897       C  0.49816390  0.71620717  0.37752669    -0.06200
C4898       C  0.52318602  0.71879312  0.36952821    -0.00200
C4899       C  0.52859226  0.71835747  0.34366298    -0.08800
C4900       C  0.50865394  0.72210700  0.32699255    -0.06200
C4901       C  0.48405721  0.72465115  0.33577445    -0.00300
C4902       C  0.47827195  0.71883786  0.36068094    -0.08700
C4903       C  0.45164997  0.71967188  0.37047631     0.61700
H4904       H  0.49383104  0.71514635  0.39726599     0.12400
H4905       H  0.51258042  0.72605097  0.30750708     0.12400
C4906       C  0.55505610  0.71697153  0.33347068     0.61900
F4907       F  0.44850322  0.70132805  0.38850219    -0.23300
F4908       F  0.43439501  0.71559617  0.35159603    -0.20600
F4909       F  0.44692006  0.74279403  0.38096723    -0.20300
F4910       F  0.57066445  0.70354691  0.34949421    -0.20300
F4911       F  0.56424072  0.74080298  0.33016394    -0.20700
F4912       F  0.55531553  0.70505015  0.31063192    -0.23300
C4913       C  0.67592929  0.82724144  0.37620223    -0.06200
C4914       C  0.64979926  0.82984821  0.37818266    -0.00200
C4915       C  0.63763535  0.85124482  0.36766938    -0.08800
C4916       C  0.65226422  0.86928081  0.35536237    -0.06200
C4917       C  0.67837583  0.86655437  0.35332268    -0.00300
C4918       C  0.69046082  0.84493749  0.36343918    -0.08700
C4919       C  0.71819473  0.83952454  0.35929016     0.61700
H4920       H  0.68482693  0.81078827  0.38438135     0.12400
H4921       H  0.64341698  0.88571854  0.34710284     0.12400
C4922       C  0.60950085  0.85541221  0.36997213     0.61900
F4923       F  0.72630935  0.81830788  0.37208259    -0.23300
F4924       F  0.73246530  0.85923075  0.36738132    -0.20600
F4925       F  0.72236984  0.83579086  0.33410647    -0.20300
F4926       F  0.60262885  0.85488551  0.39485856    -0.20300
F4927       F  0.59699537  0.83691215  0.35726378    -0.20700
F4928       F  0.60190094  0.87825167  0.36001988    -0.23300
C4929       C  0.47648707  0.77867375  0.49977736    -0.06200
C4930       C  0.49016338  0.75807769  0.51018565    -0.00200
C4931       C  0.47501129  0.73875526  0.52057632    -0.08800
C4932       C  0.44809222  0.74007339  0.51890726    -0.06200
C4933       C  0.43440703  0.75996482  0.50739445    -0.00300
C4934       C  0.44942183  0.77983574  0.49805008    -0.08700
C4935       C  0.43665992  0.80205107  0.48551491     0.61700
H4936       H  0.48732527  0.79339322  0.49133034     0.12400
H4937       H  0.43765774  0.72398007  0.52488099     0.12400
C4938       C  0.48621489  0.71559053  0.53300376     0.61900
F4939       F  0.45377855  0.81954258  0.47741465    -0.23300
F4940       F  0.42063823  0.81345997  0.50236863    -0.20600
F4941       F  0.42297012  0.79429006  0.46504827    -0.20300
F4942       F  0.51214697  0.71546664  0.53348330    -0.20300
F4943       F  0.47838361  0.69452869  0.52046205    -0.20700
F4944       F  0.47787466  0.71432234  0.55742820    -0.23300
C4945       C  0.54857558  0.64361348  0.44023513    -0.06200
C4946       C  0.57033123  0.65434263  0.42999050    -0.00200
C4947       C  0.58004033  0.64467960  0.40712763    -0.08800
C4948       C  0.56646879  0.62614573  0.39475099    -0.06200
C4949       C  0.54407901  0.61684044  0.40432794    -0.00300
C4950       C  0.53513541  0.62506033  0.42770453    -0.08700
C4951       C  0.51096962  0.61516547  0.43877448     0.61700
H4952       H  0.54154686  0.65049444  0.45789033     0.12400
H4953       H  0.57300218  0.61892463  0.37701920     0.12400
C4954       C  0.60404725  0.65392407  0.39509467     0.61900
F4955       F  0.50480076  0.62695533  0.46093732    -0.23300
F4956       F  0.51355845  0.58986420  0.44370438    -0.20600
F4957       F  0.49138889  0.61904504  0.42210029    -0.20300
F4958       F  0.62387548  0.65097979  0.41163685    -0.20300
F4959       F  0.60127171  0.67880522  0.38833631    -0.20700
F4960       F  0.61011258  0.64070947  0.37371658    -0.23300
C4961       C  0.62009004  0.89173882  0.44284720    -0.06200
C4962       C  0.59777471  0.88309170  0.45347859    -0.00200
C4963       C  0.58085340  0.90057804  0.46439477    -0.08800
C4964       C  0.58940634  0.92487146  0.46880931    -0.06200
C4965       C  0.61400088  0.93183504  0.46280309    -0.00300
C4966       C  0.62822001  0.91624544  0.44658288    -0.08700
C4967       C  0.65262891  0.92424774  0.43462264     0.61700
H4968       H  0.63196231  0.87866727  0.43276589     0.12400
H4969       H  0.57789544  0.93777577  0.47945542     0.12400
C4970       C  0.55469016  0.89357155  0.47287978     0.61900
F4971       F  0.65942960  0.90858782  0.41518785    -0.23300
F4972       F  0.67173552  0.92367850  0.45213689    -0.20600
F4973       F  0.64988387  0.94808970  0.42478338    -0.20300
F4974       F  0.55617763  0.87472175  0.49063537    -0.20300
F4975       F  0.54082981  0.88568089  0.45257051    -0.20700
F4976       F  0.54193228  0.91361115  0.48339047    -0.23300
C4977       C  0.90549097  0.90708383  0.56330404    -0.06200
C4978       C  0.89387787  0.88566261  0.57250828    -0.00200
C4979       C  0.89324146  0.88113054  0.59861341    -0.08800
C4980       C  0.90648422  0.89690907  0.61453232    -0.06200
C4981       C  0.91941953  0.91748918  0.60531494    -0.00300
C4982       C  0.91817367  0.92344432  0.57933643    -0.08700
C4983       C  0.93047415  0.94646611  0.56828340     0.61700
H4984       H  0.90502222  0.91052033  0.54333875     0.12400
H4985       H  0.90723775  0.89303542  0.63442480     0.12400
C4986       C  0.87844646  0.85993142  0.60981066     0.61900
F4987       F  0.95568018  0.94669399  0.57429611    -0.23300
F4988       F  0.91884894  0.96774132  0.57746743    -0.20600
F4989       F  0.92853622  0.94721328  0.54248099    -0.20300
F4990       F  0.88985185  0.83745168  0.60408110    -0.20300
F4991       F  0.85423430  0.86047231  0.60041182    -0.20700
F4992       F  0.87716185  0.86166679  0.63557885    -0.23300
C4993       C  0.78652855  0.91271190  0.46739492    -0.06200
C4994       C  0.77949492  0.88999229  0.45679227    -0.00200
C4995       C  0.75482640  0.88792403  0.44687158    -0.08800
C4996       C  0.73684659  0.90625688  0.45311582    -0.06200
C4997       C  0.74301329  0.92596871  0.46887556    -0.00300
C4998       C  0.76848606  0.92994099  0.47526708    -0.08700
C4999       C  0.77682731  0.94852759  0.49472027     0.61700
H5000       H  0.80563342  0.91512491  0.47384530     0.12400
H5001       H  0.71732120  0.90344858  0.44830853     0.12400
C5002       C  0.74594516  0.86532500  0.43282014     0.61900
F5003       F  0.80008981  0.95810139  0.48877373    -0.23300
F5004       F  0.77855256  0.93669430  0.51768194    -0.20600
F5005       F  0.76022201  0.96815995  0.49647908    -0.20300
F5006       F  0.73605100  0.84841562  0.44955376    -0.20300
F5007       F  0.76538581  0.85432050  0.41969098    -0.20700
F5008       F  0.72734721  0.87208484  0.41589793    -0.23300
C5009       C  0.72720726  0.77595836  0.52183836    -0.06200
C5010       C  0.73981277  0.75522328  0.51103920    -0.00200
C5011       C  0.72386101  0.73595342  0.50224846    -0.08800
C5012       C  0.69679877  0.73870469  0.50375383    -0.06200
C5013       C  0.68437508  0.76070092  0.51266568    -0.00300
C5014       C  0.70055600  0.77920340  0.52262942    -0.08700
C5015       C  0.69087399  0.80361033  0.53356877     0.61700
H5016       H  0.73856246  0.79126206  0.52796704     0.12400
H5017       H  0.68515497  0.72425871  0.49613601     0.12400
C5018       C  0.73548527  0.71334465  0.48975089     0.61900
F5019       F  0.69884139  0.80522771  0.55811679    -0.23300
F5020       F  0.66500701  0.80581991  0.53337508    -0.20600
F5021       F  0.70056764  0.82344774  0.52017063    -0.20300
F5022       F  0.75293348  0.70225369  0.50563840    -0.20300
F5023       F  0.74736016  0.72066993  0.46801110    -0.20700
F5024       F  0.71767936  0.69573830  0.48375070    -0.23300
C5025       C  0.84608262  0.81346224  0.64439588    -0.06200
C5026       C  0.84841381  0.79414745  0.62677236    -0.00200
C5027       C  0.85115937  0.76920519  0.63494954    -0.08800
C5028       C  0.85415275  0.76464491  0.66046738    -0.06200
C5029       C  0.85425472  0.78396608  0.67809396    -0.00300
C5030       C  0.84989213  0.80883872  0.67014724    -0.08700
C5031       C  0.84975106  0.83010012  0.68868693     0.61700
H5032       H  0.84193894  0.83218431  0.63781111     0.12400
H5033       H  0.85829493  0.74586669  0.66658125     0.12400
C5034       C  0.85034562  0.74744153  0.61682700     0.61900
F5035       F  0.84170637  0.85234892  0.67780623    -0.23300
F5036       F  0.87372870  0.83338280  0.69787375    -0.20600
F5037       F  0.83385159  0.82462896  0.70830353    -0.20300
F5038       F  0.87025167  0.74867961  0.60038991    -0.20300
F5039       F  0.82801294  0.74838207  0.60360327    -0.20700
F5040       F  0.85169462  0.72455525  0.62898516    -0.23300
C5041       C  0.82296250  0.85412242  0.40525169    -0.06200
C5042       C  0.82070680  0.82822129  0.40208081    -0.00200
C5043       C  0.80654549  0.81877413  0.38199513    -0.08800
C5044       C  0.79482792  0.83595581  0.36574058    -0.06200
C5045       C  0.79648261  0.86195055  0.36927788    -0.00300
C5046       C  0.81074358  0.87133840  0.38944767    -0.08700
C5047       C  0.81321145  0.89914019  0.39453483     0.61700
H5048       H  0.83359930  0.86082347  0.42107598     0.12400
H5049       H  0.78382361  0.82913837  0.35021648     0.12400
C5050       C  0.80434552  0.79090474  0.37726021     0.61900
F5051       F  0.82973926  0.90371943  0.41395281    -0.23300
F5052       F  0.79016102  0.90917207  0.40113397    -0.20600
F5053       F  0.82200097  0.91122923  0.37345879    -0.20300
F5054       F  0.79112117  0.77967848  0.39633792    -0.20300
F5055       F  0.82803667  0.78014278  0.37585841    -0.20700
F5056       F  0.79189740  0.78612533  0.35506916    -0.23300
C5057       C  0.12714077  0.65664580  0.64920119    -0.06200
C5058       C  0.13758513  0.68061444  0.65075600    -0.00200
C5059       C  0.16106912  0.68364695  0.66278466    -0.08800
C5060       C  0.17319697  0.66247907  0.67314707    -0.06200
C5061       C  0.16324961  0.63847866  0.67063427    -0.00300
C5062       C  0.14000593  0.63532152  0.65850674    -0.08700
C5063       C  0.12947536  0.60942020  0.65496151     0.61700
H5064       H  0.10954729  0.65456407  0.63927644     0.12400
H5065       H  0.19116654  0.66434296  0.68244204     0.12400
C5066       C  0.17362979  0.70894366  0.66406571     0.61900
F5067       F  0.10665654  0.61013246  0.64255149    -0.23300
F5068       F  0.12607764  0.59815161  0.67801714    -0.20600
F5069       F  0.14608880  0.59510395  0.64109252    -0.20300
F5070       F  0.19404159  0.70852596  0.68013705    -0.20300
F5071       F  0.15676393  0.72684297  0.67249368    -0.20700
F5072       F  0.18207259  0.71573407  0.64062346    -0.23300
C5073       C  0.98854544  0.80157519  0.67935348    -0.06200
C5074       C  0.96475631  0.79920797  0.66831386    -0.00200
C5075       C  0.96242666  0.80232269  0.64229587    -0.08800
C5076       C  0.98406588  0.80059031  0.62773706    -0.06200
C5077       C  0.00774950  0.79658271  0.63890589    -0.00300
C5078       C  0.01036280  0.80095113  0.66474208    -0.08700
C5079       C  0.03557289  0.80320022  0.67746041     0.61700
H5080       H  0.99045366  0.80027253  0.69941397     0.12400
H5081       H  0.98189777  0.79983179  0.60762812     0.12400
C5082       C  0.93739875  0.80521584  0.62929971     0.61900
F5083       F  0.03441850  0.82195400  0.69510716    -0.23300
F5084       F  0.05418505  0.80945087  0.66066212    -0.20600
F5085       F  0.04180386  0.78080417  0.68909026    -0.20300
F5086       F  0.93823247  0.82596216  0.61378919    -0.20300
F5087       F  0.91797311  0.80864842  0.64608945    -0.20700
F5088       F  0.93275619  0.78420715  0.61514455    -0.23300
C5089       C  0.94698986  0.74930417  0.49157503    -0.06200
C5090       C  0.93431206  0.74099031  0.51335539    -0.00200
C5091       C  0.95003737  0.72944019  0.53183900    -0.08800
C5092       C  0.97685299  0.72788853  0.52861656    -0.06200
C5093       C  0.98984943  0.73873602  0.50819322    -0.00300
C5094       C  0.97400776  0.74913622  0.48906276    -0.08700
C5095       C  0.98584012  0.76101887  0.46631192     0.61700
H5096       H  0.93559940  0.75765163  0.47699073     0.12400
H5097       H  0.98822593  0.72043535  0.54369839     0.12400
C5098       C  0.93840500  0.71980639  0.55577260     0.61900
F5099       F  0.96800294  0.76872118  0.44892833    -0.23300
F5100       F  0.00172996  0.74387895  0.45500986    -0.20600
F5101       F  0.99946795  0.78163501  0.47338783    -0.20300
F5102       F  0.91887636  0.70402451  0.55006877    -0.20300
F5103       F  0.92924297  0.73964024  0.56963730    -0.20700
F5104       F  0.95560046  0.70661534  0.57032296    -0.23300
C5105       C  0.19604082  0.73920208  0.49489837    -0.06200
C5106       C  0.18438284  0.74699918  0.51717441    -0.00200
C5107       C  0.20091711  0.75851472  0.53506970    -0.08800
C5108       C  0.22744957  0.75994904  0.53085351    -0.06200
C5109       C  0.23944026  0.75066649  0.50935966    -0.00300
C5110       C  0.22267686  0.74067725  0.49082575    -0.08700
C5111       C  0.23201542  0.73025660  0.46641878     0.61700
H5112       H  0.18449240  0.73017373  0.48099700     0.12400
H5113       H  0.23929705  0.76691438  0.54570609     0.12400
C5114       C  0.19213046  0.76925612  0.55976766     0.61900
F5115       F  0.22061835  0.74306402  0.44683516    -0.23300
F5116       F  0.22596776  0.70523342  0.46491148    -0.20600
F5117       F  0.25754086  0.73264766  0.46397079    -0.20300
F5118       F  0.20332722  0.75603193  0.57920386    -0.20300
F5119       F  0.16649743  0.76866355  0.56282823    -0.20700
F5120       F  0.19936725  0.79394895  0.56121856    -0.23300
C5121       C  0.09407512  0.61040145  0.56355265    -0.06200
C5122       C  0.11410126  0.62622432  0.56981293    -0.00200
C5123       C  0.13906905  0.61679331  0.56874675    -0.08800
C5124       C  0.14310080  0.59328813  0.55802012    -0.06200
C5125       C  0.12319275  0.57936380  0.54824642    -0.00300
C5126       C  0.09824570  0.58707703  0.55251807    -0.08700
C5127       C  0.07614448  0.57150298  0.54436025     0.61700
H5128       H  0.07492967  0.61721862  0.56512691     0.12400
H5129       H  0.16220204  0.58682785  0.55493715     0.12400
C5130       C  0.16165156  0.63169246  0.57707972     0.61900
F5131       F  0.05432531  0.57885768  0.55638862    -0.23300
F5132       F  0.08064023  0.54657455  0.55006528    -0.20600
F5133       F  0.07239328  0.57414374  0.51890449    -0.20300
F5134       F  0.15665249  0.64336243  0.59953841    -0.20300
F5135       F  0.16741763  0.64934146  0.55906013    -0.20700
F5136       F  0.18259558  0.61645799  0.58060455    -0.23300
C5137       C  0.05125604  0.89290111  0.57709377    -0.06200
C5138       C  0.02651426  0.89279860  0.58594826    -0.00200
C5139       C  0.00993543  0.87397104  0.57832976    -0.08800
C5140       C  0.02012220  0.85287453  0.56686024    -0.06200
C5141       C  0.04589178  0.85119607  0.56168300    -0.00300
C5142       C  0.06086941  0.87263103  0.56373446    -0.08700
C5143       C  0.08648058  0.87492567  0.55184159     0.61700
H5144       H  0.06333416  0.90853138  0.58116392     0.12400
H5145       H  0.00827479  0.83683062  0.56398612     0.12400
C5146       C  0.98184677  0.87594522  0.58217983     0.61900
F5147       F  0.08728114  0.89698395  0.53823471    -0.23300
F5148       F  0.09153008  0.85556980  0.53553646    -0.20600
F5149       F  0.10482842  0.87532944  0.57015082    -0.20300
F5150       F  0.97359290  0.89985174  0.57635603    -0.20300
F5151       F  0.97596008  0.87048327  0.60665855    -0.20700
F5152       F  0.96916911  0.85955893  0.56685104    -0.23300
C5153       C  0.76409112  0.37224694  0.49907779    -0.06200
C5154       C  0.76607819  0.36451479  0.47406309    -0.00200
C5155       C  0.76139918  0.33916207  0.46827488    -0.08800
C5156       C  0.74836307  0.32469254  0.48571576    -0.06200
C5157       C  0.74061793  0.33507489  0.50839115    -0.00300
C5158       C  0.75012084  0.35822394  0.51616273    -0.08700
C5159       C  0.74288841  0.36910555  0.54125996     0.61700
H5160       H  0.76913107  0.39115717  0.50393084     0.12400
H5161       H  0.74180523  0.30634319  0.48044210     0.12400
C5162       C  0.76710733  0.32776782  0.44306698     0.61900
F5163       F  0.75583741  0.39070000  0.54642121    -0.23300
F5164       F  0.74808501  0.35179541  0.55987458    -0.20600
F5165       F  0.71754824  0.37483918  0.54149178    -0.20300
F5166       F  0.77962596  0.30522511  0.44635873    -0.20300
F5167       F  0.78209752  0.34294474  0.42867696    -0.20700
F5168       F  0.74492993  0.32361398  0.43037557    -0.23300
C5169       C  0.65972006  0.39060189  0.31733330    -0.06200
C5170       C  0.66481708  0.38278495  0.34201723    -0.00200
C5171       C  0.65019722  0.36343040  0.35284614    -0.08800
C5172       C  0.63015210  0.35406776  0.33893719    -0.06200
C5173       C  0.62497510  0.36212650  0.31444696    -0.00300
C5174       C  0.64026363  0.38047372  0.30318104    -0.08700
C5175       C  0.63682318  0.38892975  0.27621028     0.61700
H5176       H  0.67112172  0.40502714  0.30905840     0.12400
H5177       H  0.61845055  0.33972057  0.34696378     0.12400
C5178       C  0.65487834  0.35275359  0.37895864     0.61900
F5179       F  0.65511888  0.40548005  0.26868321    -0.23300
F5180       F  0.61387711  0.40091018  0.27353511    -0.20600
F5181       F  0.63807722  0.36849539  0.26057698    -0.20300
F5182       F  0.65151124  0.37114925  0.39670874    -0.20300
F5183       F  0.67900428  0.34299664  0.38051220    -0.20700
F5184       F  0.63861191  0.33362541  0.38477460    -0.23300
C5185       C  0.83769307  0.41943499  0.44823509    -0.06200
C5186       C  0.82658020  0.41222645  0.42570816    -0.00200
C5187       C  0.82453896  0.38643842  0.41982699    -0.08800
C5188       C  0.83086160  0.36902619  0.43833667    -0.06200
C5189       C  0.84126527  0.37631901  0.46105345    -0.00300
C5190       C  0.84543504  0.40187511  0.46611662    -0.08700
C5191       C  0.85702194  0.41088947  0.49045512     0.61700
H5192       H  0.83978639  0.43917460  0.45193318     0.12400
H5193       H  0.82974109  0.34920847  0.43440441     0.12400
C5194       C  0.81706400  0.37684591  0.39415519     0.61900
F5195       F  0.88067490  0.40065815  0.49412967    -0.23300
F5196       F  0.84181836  0.40434324  0.51013922    -0.20600
F5197       F  0.85941758  0.43662668  0.49075817    -0.20300
F5198       F  0.83229436  0.38731869  0.37614294    -0.20300
F5199       F  0.79230156  0.38275998  0.38913815    -0.20700
F5200       F  0.81973266  0.35111320  0.39237288    -0.23300
C5201       C  0.59632669  0.46206714  0.41450897    -0.06200
C5202       C  0.61153536  0.45245179  0.39538373    -0.00200
C5203       C  0.59989659  0.44068012  0.37476302    -0.08800
C5204       C  0.57403763  0.44413062  0.37118866    -0.06200
C5205       C  0.55997509  0.45880760  0.38779768    -0.00300
C5206       C  0.57031042  0.46391793  0.41151101    -0.08700
C5207       C  0.55459290  0.47261608  0.43330888     0.61700
H5208       H  0.60474296  0.46878808  0.43162975     0.12400
H5209       H  0.56555866  0.43804286  0.35387971     0.12400
C5210       C  0.61427241  0.42356237  0.35754408     0.61900
F5211       F  0.56051785  0.45824981  0.45414533    -0.23300
F5212       F  0.52920955  0.47010314  0.42852777    -0.20600
F5213       F  0.55961250  0.49737240  0.43835487    -0.20300
F5214       F  0.62883174  0.40777619  0.37208480    -0.20300
F5215       F  0.62927430  0.43713555  0.34162744    -0.20700
F5216       F  0.59845554  0.40907501  0.34322745    -0.23300
C5217       C  0.56476833  0.52391097  0.23845471    -0.06200
C5218       C  0.57236624  0.50282080  0.25239516    -0.00200
C5219       C  0.59016043  0.48599031  0.24253689    -0.08800
C5220       C  0.60233414  0.49274091  0.22026329    -0.06200
C5221       C  0.59776474  0.51612798  0.20865040    -0.00300
C5222       C  0.57731074  0.53099608  0.21656735    -0.08700
C5223       C  0.56944767  0.55453035  0.20258050     0.61700
H5224       H  0.55016097  0.53589171  0.24597139     0.12400
H5225       H  0.61732485  0.48095977  0.21315250     0.12400
C5226       C  0.59672087  0.46175467  0.25598535     0.61900
F5227       F  0.54911757  0.56632614  0.21372040    -0.23300
F5228       F  0.56268880  0.54829186  0.17846793    -0.20600
F5229       F  0.58900809  0.57121388  0.20183958    -0.20300
F5230       F  0.57509581  0.44827089  0.25983988    -0.20300
F5231       F  0.60766984  0.46678215  0.27884791    -0.20700
F5232       F  0.61323888  0.44712883  0.24227234    -0.23300
C5233       C  0.65753705  0.62694497  0.03807075    -0.06200
C5234       C  0.67091112  0.64899397  0.04264713    -0.00200
C5235       C  0.68053656  0.65345934  0.06692597    -0.08800
C5236       C  0.67637202  0.63541706  0.08568092    -0.06200
C5237       C  0.66283071  0.61359987  0.08089773    -0.00300
C5238       C  0.65311362  0.60928505  0.05684114    -0.08700
C5239       C  0.63837716  0.58590996  0.05103676     0.61700
H5240       H  0.65022539  0.62374635  0.01946852     0.12400
H5241       H  0.68466749  0.63759166  0.10404234     0.12400
C5242       C  0.69505414  0.67687657  0.07314197     0.61900
F5243       F  0.62967564  0.58586644  0.02661863    -0.23300
F5244       F  0.61790483  0.58462301  0.06677661    -0.20600
F5245       F  0.65334724  0.56487014  0.05452733    -0.20300
F5246       F  0.68063640  0.69792444  0.06772608    -0.20300
F5247       F  0.71692975  0.67740866  0.05933097    -0.20700
F5248       F  0.70156858  0.67771948  0.09820118    -0.23300
C5249       C  0.75470254  0.50441408  0.26971199    -0.06200
C5250       C  0.73315867  0.51124596  0.25546018    -0.00200
C5251       C  0.71364279  0.52351457  0.26983461    -0.08800
C5252       C  0.71389751  0.52317938  0.29653950    -0.06200
C5253       C  0.73430405  0.51455710  0.31099424    -0.00300
C5254       C  0.75609518  0.50762545  0.29660018    -0.08700
C5255       C  0.78180533  0.50631817  0.30837290     0.61700
H5256       H  0.77078449  0.49675267  0.25992343     0.12400
H5257       H  0.69736210  0.52973673  0.30643177     0.12400
C5258       C  0.69207670  0.53852931  0.25846707     0.61900
F5259       F  0.79708522  0.52341260  0.29660377    -0.23300
F5260       F  0.79233858  0.48279878  0.30546687    -0.20600
F5261       F  0.78095120  0.51234387  0.33339034    -0.20300
F5262       F  0.66948903  0.52875679  0.26618796    -0.20300
F5263       F  0.69263549  0.53933827  0.23279378    -0.20700
F5264       F  0.69328792  0.56289097  0.26685953    -0.23300
C5265       C  0.77913714  0.63048208  0.13307536    -0.06200
C5266       C  0.77906873  0.60482400  0.12846087    -0.00200
C5267       C  0.80058755  0.59279135  0.11845243    -0.08800
C5268       C  0.82017641  0.60767475  0.10992011    -0.06200
C5269       C  0.81942367  0.63374658  0.11250263    -0.00300
C5270       C  0.79942911  0.64521411  0.12581173    -0.08700
C5271       C  0.79931941  0.67265713  0.13254446     0.61700
H5272       H  0.76286481  0.63902619  0.14183085     0.12400
H5273       H  0.83600620  0.59900700  0.10057937     0.12400
C5274       C  0.80363015  0.56447542  0.11820638     0.61900
F5275       F  0.78242974  0.67775179  0.15152437    -0.23300
F5276       F  0.79246335  0.68678725  0.11191283    -0.20600
F5277       F  0.82287203  0.67954732  0.14074713    -0.20300
F5278       F  0.78540774  0.55373293  0.10351463    -0.20300
F5279       F  0.80181246  0.55548923  0.14239753    -0.20700
F5280       F  0.82678500  0.55702172  0.10898825    -0.23300
C5281       C  0.65099521  0.38505947  0.20290413    -0.06200
C5282       C  0.62661708  0.37900965  0.19526366    -0.00200
C5283       C  0.61378670  0.39408605  0.17735586    -0.08800
C5284       C  0.62475503  0.41635724  0.16974610    -0.06200
C5285       C  0.64811927  0.42329750  0.17890751    -0.00300
C5286       C  0.66225630  0.40711641  0.19462368    -0.08700
C5287       C  0.68923473  0.41273496  0.20167120     0.61700
H5288       H  0.66084477  0.37276382  0.21588123     0.12400
H5289       H  0.61480763  0.42893206  0.15707673     0.12400
C5290       C  0.58865516  0.38699696  0.16624987     0.61900
F5291       F  0.69994173  0.39379436  0.21605887    -0.23300
F5292       F  0.69034569  0.43464628  0.21513606    -0.20600
F5293       F  0.70334601  0.41523305  0.18016664    -0.20300
F5294       F  0.56978197  0.39205550  0.18318546    -0.20300
F5295       F  0.58871554  0.36186128  0.16027504    -0.20700
F5296       F  0.58349103  0.40039511  0.14456801    -0.23300
C5297       C  0.84077493  0.38977829  0.58215142    -0.06200
C5298       C  0.85627886  0.39705007  0.60200648    -0.00200
C5299       C  0.87801190  0.38226574  0.60754755    -0.08800
C5300       C  0.88295426  0.36087825  0.59280870    -0.06200
C5301       C  0.86683514  0.35357421  0.57327844    -0.00300
C5302       C  0.84522933  0.36840690  0.56799380    -0.08700
C5303       C  0.82659840  0.36219499  0.54749170     0.61700
H5304       H  0.82425246  0.40078497  0.57791158     0.12400
H5305       H  0.89960597  0.34959186  0.59642070     0.12400
C5306       C  0.89612950  0.38880450  0.62840928     0.61900
F5307       F  0.80881643  0.38096749  0.54368166    -0.23300
F5308       F  0.81412457  0.34067171  0.55397417    -0.20600
F5309       F  0.83896481  0.35884321  0.52521501    -0.20300
F5310       F  0.88453320  0.38565335  0.65125721    -0.20300
F5311       F  0.90375759  0.41330178  0.62584524    -0.20700
F5312       F  0.91743571  0.37367220  0.62819262    -0.23300
C5313       C  0.89782189  0.51543822  0.73540650    -0.06200
C5314       C  0.88254553  0.49452386  0.73658763    -0.00200
C5315       C  0.87927783  0.48151817  0.75924815    -0.08800
C5316       C  0.89268425  0.48930167  0.78014761    -0.06200
C5317       C  0.91068147  0.50827196  0.77837514    -0.00300
C5318       C  0.91179737  0.52293724  0.75617377    -0.08700
C5319       C  0.92779609  0.54593735  0.75367040     0.61700
H5320       H  0.89856348  0.52597468  0.71805576     0.12400
H5321       H  0.89064033  0.47902574  0.79749432     0.12400
C5322       C  0.86228334  0.45899903  0.76094563     0.61900
F5323       F  0.91948414  0.56124672  0.73429718    -0.23300
F5324       F  0.95210171  0.53864964  0.74862345    -0.20600
F5325       F  0.92702180  0.55976525  0.77541823    -0.20300
F5326       F  0.86930783  0.44160967  0.74317548    -0.20300
F5327       F  0.83771429  0.46636946  0.75667007    -0.20700
F5328       F  0.86359880  0.44748299  0.78416703    -0.23300
C5329       C  0.76300537  0.51169422  0.54719187    -0.06200
C5330       C  0.74376339  0.49995224  0.56111690    -0.00200
C5331       C  0.72246120  0.49276591  0.54676129    -0.08800
C5332       C  0.72175591  0.49650587  0.51995437    -0.06200
C5333       C  0.74188049  0.50659864  0.50584942    -0.00300
C5334       C  0.76247890  0.51513500  0.52045782    -0.08700
C5335       C  0.78412347  0.52802059  0.50757575     0.61700
H5336       H  0.77938256  0.51726611  0.55742520     0.12400
H5337       H  0.70588691  0.48985013  0.50952762     0.12400
C5338       C  0.70107901  0.47970153  0.55971013     0.61900
F5339       F  0.80281996  0.53442559  0.52427714    -0.23300
F5340       F  0.77527173  0.54966478  0.49612249    -0.20600
F5341       F  0.79469626  0.51262200  0.48970234    -0.20300
F5342       F  0.69173737  0.49477550  0.57851335    -0.20300
F5343       F  0.70964948  0.45738371  0.57001326    -0.20700
F5344       F  0.68166763  0.47453857  0.54336595    -0.23300
C5345       C  0.73334687  0.36504872  0.65395001    -0.06200
C5346       C  0.75547951  0.37021725  0.64097090    -0.00200
C5347       C  0.76476517  0.35296434  0.62341896    -0.08800
C5348       C  0.74855280  0.33449547  0.61476226    -0.06200
C5349       C  0.72434232  0.33200258  0.62484044    -0.00300
C5350       C  0.71823265  0.34508504  0.64702180    -0.08700
C5351       C  0.69560961  0.33913942  0.66298032     0.61700
H5352       H  0.72726979  0.37731299  0.66888302     0.12400
H5353       H  0.75433779  0.32308747  0.59908910     0.12400
C5354       C  0.79077381  0.35476875  0.61247294     0.61900
F5355       F  0.70057717  0.34410691  0.68785473    -0.23300
F5356       F  0.68979043  0.31406679  0.66136263    -0.20600
F5357       F  0.67525712  0.35363138  0.65539582    -0.20300
F5358       F  0.80710781  0.36673271  0.62847751    -0.20300
F5359       F  0.78920766  0.36784916  0.59027543    -0.20700
F5360       F  0.80058315  0.33113115  0.60802779    -0.23300
C5361       C  0.81715524  0.60621004  0.69126741    -0.06200
C5362       C  0.83292496  0.58898183  0.67908699    -0.00200
C5363       C  0.85848088  0.59440078  0.67508940    -0.08800
C5364       C  0.86739050  0.61720899  0.68338046    -0.06200
C5365       C  0.85225722  0.63377610  0.69699897    -0.00300
C5366       C  0.82648683  0.62879411  0.70054946    -0.08700
C5367       C  0.80931929  0.64639404  0.71493397     0.61700
H5368       H  0.79770162  0.60137765  0.69416749     0.12400
H5369       H  0.88682839  0.62187901  0.68018767     0.12400
C5370       C  0.87681807  0.57567466  0.66368937     0.61900
F5371       F  0.78518632  0.63729676  0.71671946    -0.23300
F5372       F  0.80788717  0.66932821  0.70294665    -0.20600
F5373       F  0.81850706  0.64954076  0.73888706    -0.20300
F5374       F  0.87152169  0.57292357  0.63858136    -0.20300
F5375       F  0.87503872  0.55279876  0.67573659    -0.20700
F5376       F  0.90145140  0.58332834  0.66585535    -0.23300
C5377       C  0.85974788  0.59478061  0.81596872    -0.06200
C5378       C  0.85930546  0.59890617  0.84179230    -0.00200
C5379       C  0.87589334  0.61668551  0.85217768    -0.08800
C5380       C  0.88992544  0.63180219  0.83591806    -0.06200
C5381       C  0.88856599  0.62935158  0.80980932    -0.00300
C5382       C  0.87394038  0.60971106  0.79966392    -0.08700
C5383       C  0.87171664  0.60535559  0.77175199     0.61700
H5384       H  0.84760084  0.58060140  0.80843593     0.12400
H5385       H  0.90139306  0.64647426  0.84361656     0.12400
C5386       C  0.87850385  0.62065530  0.88016058     0.61900
F5387       F  0.85531976  0.58629037  0.76615582    -0.23300
F5388       F  0.89490862  0.59887921  0.76215764    -0.20600
F5389       F  0.86283162  0.62684097  0.76017209    -0.20300
F5390       F  0.87729706  0.59815346  0.89299566    -0.20300
F5391       F  0.85959852  0.63655309  0.88821045    -0.20700
F5392       F  0.90131772  0.63130379  0.88600145    -0.23300
C5393       C  0.76270800  0.63098255  0.99557151    -0.06200
C5394       C  0.76494192  0.63607384  0.96978576    -0.00200
C5395       C  0.77508182  0.65940019  0.96218466    -0.08800
C5396       C  0.78825098  0.67315068  0.97975593    -0.06200
C5397       C  0.79135605  0.66443011  0.00417889    -0.00300
C5398       C  0.77645759  0.64475451  0.01311626    -0.08700
C5399       C  0.77746512  0.63678717  0.04036038     0.61700
H5400       H  0.75364083  0.61398725  0.00157541     0.12400
H5401       H  0.79911944  0.68895078  0.97346810     0.12400
C5402       C  0.77531412  0.66940931  0.93561436     0.61900
F5403       F  0.76042157  0.61816929  0.04553056    -0.23300
F5404       F  0.77180128  0.65709488  0.05529942    -0.20600
F5405       F  0.80123506  0.62786984  0.04635147    -0.20300
F5406       F  0.75972242  0.65634244  0.92001915    -0.20300
F5407       F  0.79948936  0.66826839  0.92633272    -0.20700
F5408       F  0.76735406  0.69414119  0.93542694    -0.23300
C5409       C  0.72989750  0.48933914  0.01658336    -0.06200
C5410       C  0.75316452  0.48624669  0.00462682    -0.00200
C5411       C  0.77401105  0.48232060  0.02152481    -0.08800
C5412       C  0.77114998  0.48495658  0.04836975    -0.06200
C5413       C  0.74780246  0.49007878  0.06015169    -0.00300
C5414       C  0.72676941  0.49127507  0.04307828    -0.08700
C5415       C  0.69986441  0.49497089  0.05127680     0.61700
H5416       H  0.71358521  0.49210452  0.00465979     0.12400
H5417       H  0.78773013  0.48386936  0.06011603     0.12400
C5418       C  0.79965927  0.47451368  0.01235880     0.61900
F5419       F  0.68868608  0.51427223  0.03776241    -0.23300
F5420       F  0.69765921  0.50056850  0.07615934    -0.20600
F5421       F  0.68699597  0.47320312  0.04660515    -0.20300
F5422       F  0.81697052  0.49248820  0.01847790    -0.20300
F5423       F  0.79988204  0.47074615  0.98687844    -0.20700
F5424       F  0.80672833  0.45228189  0.02389843    -0.23300
C5425       C  0.73722412  0.49587292  0.80040196    -0.06200
C5426       C  0.75906287  0.48388430  0.81046060    -0.00200
C5427       C  0.77495222  0.47235689  0.79236679    -0.08800
C5428       C  0.77110580  0.47656301  0.76607410    -0.06200
C5429       C  0.75037882  0.49010989  0.75578194    -0.00300
C5430       C  0.73264931  0.49901851  0.77378398    -0.08700
C5431       C  0.70922040  0.51252795  0.76476186     0.61700
H5432       H  0.72423445  0.50408075  0.81354581     0.12400
H5433       H  0.78546742  0.47016101  0.75330934     0.12400
C5434       C  0.79680079  0.45592363  0.80077055     0.61900
F5435       F  0.69335958  0.51854813  0.78432756    -0.23300
F5436       F  0.69637300  0.49733957  0.74841709    -0.20600
F5437       F  0.71563888  0.53434811  0.75251944    -0.20300
F5438       F  0.79174118  0.44448808  0.82343783    -0.20300
F5439       F  0.81807029  0.47013621  0.80317621    -0.20700
F5440       F  0.80132831  0.43715885  0.78368248    -0.23300
C5441       C  0.69591687  0.63400646  0.94940199    -0.06200
C5442       C  0.70530713  0.65133062  0.93177158    -0.00200
C5443       C  0.70600189  0.64446382  0.90613703    -0.08800
C5444       C  0.69891623  0.62017553  0.89985589    -0.06200
C5445       C  0.69298715  0.60211713  0.91805421    -0.00300
C5446       C  0.68827606  0.61008428  0.94261924    -0.08700
C5447       C  0.67295615  0.59537218  0.96132507     0.61700
H5448       H  0.69318706  0.63949106  0.96868591     0.12400
H5449       H  0.70024898  0.61470242  0.88046943     0.12400
C5450       C  0.71450916  0.66087422  0.88442164     0.61900
F5451       F  0.68687765  0.59074279  0.98267678    -0.23300
F5452       F  0.66454126  0.57302839  0.95176780    -0.20600
F5453       F  0.65209708  0.60945954  0.96792015    -0.20300
F5454       F  0.72784096  0.68158569  0.89143144    -0.20300
F5455       F  0.69369312  0.66844061  0.87075882    -0.20700
F5456       F  0.73011056  0.64724996  0.86887158    -0.23300
C5457       C  0.90384552  0.53991190  0.87940341    -0.06200
C5458       C  0.89511834  0.52118884  0.89542671    -0.00200
C5459       C  0.91235158  0.50721978  0.91025820    -0.08800
C5460       C  0.93812308  0.51057784  0.90629799    -0.06200
C5461       C  0.94684995  0.52683386  0.88754805    -0.00300
C5462       C  0.92955955  0.54395568  0.87639928    -0.08700
C5463       C  0.93749266  0.56624600  0.86087334     0.61700
H5464       H  0.89044182  0.55195556  0.86967232     0.12400
H5465       H  0.95145609  0.49854333  0.91600689     0.12400
C5466       C  0.90360627  0.48781441  0.92900087     0.61900
F5467       F  0.92439698  0.58725867  0.86851223    -0.23300
F5468       F  0.93221460  0.56205659  0.83592782    -0.20600
F5469       F  0.96275259  0.57114296  0.86374115    -0.20300
F5470       F  0.88802827  0.47104087  0.91725937    -0.20300
F5471       F  0.89074241  0.49943928  0.94816599    -0.20700
F5472       F  0.92348960  0.47443884  0.93944110    -0.23300
loop_ 
_geom_bond_atom_site_label_1 
_geom_bond_atom_site_label_2 
_geom_bond_distance 
_geom_bond_site_symmetry_2 
_ccdc_geom_bond_type 
Zr1           O2   2.440       .  S
Zr1           O3   2.432       .  S
Zr1           O4   2.442       .  S
Zr1           O7   2.455       .  S
Zr1           O9   2.385       .  S
Zr1          O10   2.411       .  S
Zr1          O11   2.410       .  S
Zr1          O12   2.377       .  S
O2           H58   0.991       .  S
O2           H66   0.991       .  S
O3           C23   1.280       .  A
O4           C25   1.285       .  A
O5          Zr15   2.661       .  S
O5           C24   1.332       .  A
O6          Zr14   2.396       .  S
O6           C25   1.277       .  A
O7           C24   1.285       .  A
O8          Zr16   2.400       .  S
O8           C23   1.274       .  A
O9          Zr14   2.384       .  S
O9          Zr16   2.383       .  S
O10         Zr15   2.414       .  S
O10         Zr16   2.418       .  S
O10          H45   0.965       .  S
O11         Zr14   2.390       .  S
O11         Zr31   2.409       .  S
O11          H48   0.966       .  S
O12         Zr15   2.362       .  S
O12         Zr31   2.357       .  S
Zr13         O38   2.441       .  S
Zr13         O32   2.448       .  S
Zr13         O40   2.465       .  S
Zr13         O28   2.452       .  S
Zr13         O19   2.363       .  S
Zr13         O20   2.413       .  S
Zr13         O21   2.367       .  S
Zr13         O22   2.413       .  S
Zr14         O33   2.438       .  S
Zr14         O26   2.435       .  S
Zr14         O27   2.408       .  S
Zr14         O20   2.394       .  S
Zr14         O21   2.372       .  S
Zr15         O17   2.434       .  S
Zr15         O39   2.437       .  S
Zr15         O41   2.662       .  S
Zr15         O19   2.339       .  S
Zr15         O22   2.432       .  S
Zr16         O42   2.436       .  S
Zr16         O43   2.430       .  S
Zr16         O18   2.432       .  S
Zr16         O19   2.346       .  S
Zr16         O20   2.429       .  S
O17          H54   0.990       .  S
O18          H49   0.990       .  S
O18          H63   0.987       .  S
O20          H46   0.966       .  S
O21         Zr31   2.367       .  S
O22         Zr31   2.417       .  S
O22          H47   0.966       .  S
C23        C5445   1.481       .  S
C24        C5410   1.568   1_556  S
C25        C5394   1.483       .  S
O26          H62   0.990       .  S
O27          C29   1.279       .  A
O28          C29   1.287       .  A
C29        C5378   1.488       .  S
O30         Zr31   2.435       .  S
O30          H59   0.990       .  S
Zr31         O34   2.429       .  S
Zr31         O35   2.435       .  S
Zr31         O36   2.385       .  S
O32          C37   1.285       .  A
O33          H50   0.989       .  S
O33          H65   0.990       .  S
O34          H51   0.990       .  S
O35          H55   0.990       .  S
O35          H64   0.989       .  S
O36          C37   1.272       .  A
C37        C5458   1.465       .  S
O38          H57   0.991       .  S
O38          H61   0.990       .  S
O39          H53   0.990       .  S
O39          H60   0.990       .  S
O40          C44   1.290       .  A
O41          C44   1.333       .  A
O42          H52   0.990       .  S
O43          H56   0.990       .  S
C44        C5426   1.567       .  S
Zr67         O68   2.439       .  S
Zr67         O69   2.452       .  S
Zr67         O70   2.429       .  S
Zr67         O73   2.449       .  S
Zr67         O75   2.378       .  S
Zr67         O76   2.400       .  S
Zr67         O77   2.417       .  S
Zr67         O78   2.368       .  S
O68         H124   0.988       .  S
O68         H132   0.990       .  S
O69          C89   1.287       .  A
O70          C91   1.281       .  A
O71         Zr81   2.658       .  S
O71          C90   1.332       .  A
O72         Zr80   2.441       .  S
O72          C91   1.280       .  A
O73          C90   1.286       .  A
O74         Zr82   2.372       .  S
O74          C89   1.270       .  A
O75         Zr80   2.397       .  S
O75         Zr82   2.361       .  S
O76         Zr81   2.408       .  S
O76         Zr82   2.411       .  S
O76         H111   0.966       .  S
O77         Zr80   2.401       .  S
O77         Zr97   2.404       .  S
O77         H114   0.966       .  S
O78         Zr81   2.369       .  S
O78         Zr97   2.366       .  S
Zr79        O104   2.450       .  S
Zr79         O98   2.417       .  S
Zr79        O106   2.420       .  S
Zr79         O94   2.368       .  S
Zr79         O85   2.369       .  S
Zr79         O86   2.423       .  S
Zr79         O87   2.375       .  S
Zr79         O88   2.384       .  S
Zr80         O99   2.435       .  S
Zr80         O92   2.436       .  S
Zr80         O93   2.426       .  S
Zr80         O86   2.406       .  S
Zr80         O87   2.408       .  S
Zr81         O83   2.436       .  S
Zr81        O105   2.434       .  S
Zr81        O107   2.687       .  S
Zr81         O85   2.351       .  S
Zr81         O88   2.419       .  S
Zr82        O108   2.436       .  S
Zr82        O109   2.429       .  S
Zr82         O84   2.442       .  S
Zr82         O85   2.351       .  S
Zr82         O86   2.399       .  S
O83         H120   0.990       .  S
O84         H115   0.990       .  S
O84         H129   0.989       .  S
O86         H112   0.964       .  S
O87         Zr97   2.370       .  S
O88         Zr97   2.407       .  S
O88         H113   0.966       .  S
C89        C5346   1.463       .  S
C90        C5330   1.566       .  S
C91        C5298   1.497       .  S
O92         H128   0.989       .  S
O93          C95   1.281       .  A
O94          C95   1.269       .  A
C95        C5314   1.442       .  S
O96         Zr97   2.432       .  S
O96         H125   0.990       .  S
Zr97        O100   2.435       .  S
Zr97        O101   2.438       .  S
Zr97        O102   2.389       .  S
O98         C103   1.277       .  A
O99         H116   0.990       .  S
O99         H131   0.990       .  S
O100        H117   0.990       .  S
O101        H121   0.990       .  S
O101        H130   0.990       .  S
O102        C103   1.273       .  A
C103       C5362   1.458       .  S
O104        H123   0.991       .  S
O104        H127   0.990       .  S
O105        H119   0.990       .  S
O105        H126   0.990       .  S
O106        C110   1.269       .  A
O107        C110   1.334       .  A
O108        H118   0.990       .  S
O109        H122   0.989       .  S
C110       C5429   1.567       .  S
Zr133       O134   2.454       .  S
Zr133       O135   2.428       .  S
Zr133       O136   2.399       .  S
Zr133       O139   2.402       .  S
Zr133       O141   2.369       .  S
Zr133       O142   2.385       .  S
Zr133       O143   2.437       .  S
Zr133       O144   2.380       .  S
O134        H190   0.990       .  S
O134        H198   0.987       .  S
O135        C155   1.278       .  A
O136        C157   1.270       .  A
O137       Zr147   2.700       .  S
O137        C156   1.338       .  A
O138       Zr146   2.466       .  S
O138        C157   1.285       .  A
O139        C156   1.270       .  A
O140       Zr148   2.386       .  S
O140        C155   1.273       .  A
O141       Zr146   2.401       .  S
O141       Zr148   2.351       .  S
O142       Zr147   2.393       .  S
O142       Zr148   2.420       .  S
O142        H177   0.964       .  S
O143       Zr146   2.406       .  S
O143       Zr163   2.415       .  S
O143        H180   0.965       .  S
O144       Zr147   2.363       .  S
O144       Zr163   2.379       .  S
Zr145       O170   2.445       .  S
Zr145       O164   2.428       .  S
Zr145       O172   2.396       .  S
Zr145       O160   2.383       .  S
Zr145       O151   2.375       .  S
Zr145       O152   2.420       .  S
Zr145       O153   2.368       .  S
Zr145       O154   2.385       .  S
Zr146       O165   2.437       .  S
Zr146       O158   2.436       .  S
Zr146       O159   2.451       .  S
Zr146       O152   2.414       .  S
Zr146       O153   2.401       .  S
Zr147       O149   2.435       .  S
Zr147       O171   2.434       .  S
Zr147       O173   2.696       .  S
Zr147       O151   2.376       .  S
Zr147       O154   2.373       .  S
Zr148       O174   2.437       .  S
Zr148       O175   2.442       .  S
Zr148       O150   2.448       .  S
Zr148       O151   2.377       .  S
Zr148       O152   2.417       .  S
O149        H186   0.990       .  S
O150        H181   0.990       .  S
O150        H195   0.990       .  S
O152        H178   0.966       .  S
O153       Zr163   2.353       .  S
O154       Zr163   2.409       .  S
O154        H179   0.961       .  S
C155       C5285   1.447       .  S
C156       C5250   1.574       .  S
C157       C5221   1.475       .  S
O158        H194   0.990       .  S
O159        C161   1.287       .  A
O160        C161   1.272       .  A
C161       C5237   1.459       .  S
O162       Zr163   2.438       .  S
O162        H191   0.990       .  S
Zr163       O166   2.438       .  S
Zr163       O167   2.434       .  S
Zr163       O168   2.417       .  S
O164        C169   1.281       .  A
O165        H182   0.990       .  S
O165        H197   0.990       .  S
O166        H183   0.990       .  S
O167        H187   0.990       .  S
O167        H196   0.990       .  S
O168        C169   1.279       .  A
C169       C5266   1.459       .  S
O170        H189   0.989       .  S
O170        H193   0.991       .  S
O171        H185   0.990       .  S
O171        H192   0.990       .  S
O172        C176   1.272       .  A
O173        C176   1.340       .  A
O174        H184   0.990       .  S
O175        H188   0.990       .  S
C176       C5413   1.570       .  S
Zr199       O200   2.446       .  S
Zr199       O201   2.437       .  S
Zr199       O202   2.407       .  S
Zr199       O205   2.450       .  S
Zr199       O207   2.379       .  S
Zr199       O208   2.400       .  S
Zr199       O209   2.428       .  S
Zr199       O210   2.363       .  S
O200        H256   0.991       .  S
O200        H264   0.990       .  S
O201        C221   1.282       .  A
O202        C223   1.280       .  A
O203       Zr213   2.671       .  S
O203        C222   1.335       .  A
O204       Zr212   2.414       .  S
O204        C223   1.278       .  A
O205        C222   1.285       .  A
O206       Zr214   2.400       .  S
O206        C221   1.275       .  A
O207       Zr212   2.383       .  S
O207       Zr214   2.361       .  S
O208       Zr213   2.425       .  S
O208       Zr214   2.411       .  S
O208        H243   0.966       .  S
O209       Zr212   2.388       .  S
O209       Zr229   2.414       .  S
O209        H246   0.965       .  S
O210       Zr213   2.344       .  S
O210       Zr229   2.358       .  S
Zr211       O236   2.443       .  S
Zr211       O230   2.420       .  S
Zr211       O238   2.422       .  S
Zr211       O226   2.422       .  S
Zr211       O217   2.376       .  S
Zr211       O218   2.415       .  S
Zr211       O219   2.381       .  S
Zr211       O220   2.410       .  S
Zr212       O231   2.437       .  S
Zr212       O224   2.436       .  S
Zr212       O225   2.413       .  S
Zr212       O218   2.394       .  S
Zr212       O219   2.366       .  S
Zr213       O215   2.435       .  S
Zr213       O237   2.434       .  S
Zr213       O239   2.671       .  S
Zr213       O217   2.361       .  S
Zr213       O220   2.406       .  S
Zr214       O240   2.436       .  S
Zr214       O241   2.429       .  S
Zr214       O216   2.444       .  S
Zr214       O217   2.368       .  S
Zr214       O218   2.405       .  S
O215        H252   0.990       .  S
O216        H247   0.989       .  S
O216        H261   0.988       .  S
O218        H244   0.965       .  S
O219       Zr229   2.383       .  S
O220       Zr229   2.435       .  S
O220        H245   0.966       .  S
C221       C5202   1.478       .  S
C222       C5253   1.563       .  S
C223       C5170   1.484       .  S
O224        H260   0.988       .  S
O225        C227   1.282       .  A
O226        C227   1.281       .  A
C227       C5154   1.480       .  S
O228       Zr229   2.433       .  S
O228        H257   0.989       .  S
Zr229       O232   2.435       .  S
Zr229       O233   2.434       .  S
Zr229       O234   2.382       .  S
O230        C235   1.271       .  A
O231        H248   0.990       .  S
O231        H263   0.990       .  S
O232        H249   0.990       .  S
O233        H253   0.990       .  S
O233        H262   0.990       .  S
O234        C235   1.263       .  A
C235       C5186   1.463       .  S
O236        H255   0.989       .  S
O236        H259   0.990       .  S
O237        H251   0.990       .  S
O237        H258   0.990       .  S
O238        C242   1.280       .  A
O239        C242   1.335       .  A
O240        H250   0.990       .  S
O241        H254   0.990       .  S
C242       C5333   1.560       .  S
Zr265       O266   2.442       .  S
Zr265       O267   2.425       .  S
Zr265       O268   2.419       .  S
Zr265       O271   2.420       .  S
Zr265       O273   2.373       .  S
Zr265       O274   2.400       .  S
Zr265       O275   2.408       .  S
Zr265       O276   2.372       .  S
O266        H322   0.989       .  S
O266        H330   0.990       .  S
O267        C287   1.279       .  A
O268        C289   1.274       .  A
O269       Zr279   2.650       .  S
O269        C288   1.330       .  A
O270       Zr278   2.457       .  S
O270        C289   1.286       .  A
O271        C288   1.280       .  A
O272       Zr280   2.398       .  S
O272        C287   1.275       .  A
O273       Zr278   2.390       .  S
O273       Zr280   2.351       .  S
O274       Zr279   2.412       .  S
O274       Zr280   2.409       .  S
O274        H309   0.966       .  S
O275       Zr278   2.418       .  S
O275       Zr295   2.413       .  S
O275        H312   0.966       .  S
O276       Zr279   2.390       .  S
O276       Zr295   2.372       .  S
Zr277       O302   2.440   1_455  S
Zr277       O296   2.381       .  S
Zr277       O304   2.383       .  S
Zr277       O292   2.384       .  S
Zr277       O283   2.378       .  S
Zr277       O284   2.404       .  S
Zr277       O285   2.364       .  S
Zr277       O286   2.386       .  S
Zr278       O297   2.435       .  S
Zr278       O290   2.436       .  S
Zr278       O291   2.459       .  S
Zr278       O284   2.403       .  S
Zr278       O285   2.397       .  S
Zr279       O281   2.435       .  S
Zr279       O303   2.436       .  S
Zr279       O305   2.679       .  S
Zr279       O283   2.374       .  S
Zr279       O286   2.400       .  S
Zr280       O306   2.438       .  S
Zr280       O307   2.434       .  S
Zr280       O282   2.442       .  S
Zr280       O283   2.367       .  S
Zr280       O284   2.410       .  S
O281        H318   0.990       .  S
O282        H313   0.990       .  S
O282        H327   0.990       .  S
O284        H310   0.966       .  S
O285       Zr295   2.353       .  S
O286       Zr295   2.399       .  S
O286        H311   0.966       .  S
C287       C5122   1.479       .  S
C288       C5106   1.558       .  S
C289       C5058   1.478       .  S
O290        H326   0.990       .  S
O291        C293   1.291       .  A
O292        C293   1.274       .  A
C293       C5077   1.480       .  S
O294       Zr295   2.440       .  S
O294        H323   0.991       .  S
Zr295       O298   2.438       .  S
Zr295       O299   2.439       .  S
Zr295       O300   2.417       .  S
O296        C301   1.272       .  A
O297        H314   0.990       .  S
O297        H329   0.990       .  S
O298        H315   0.990       .  S
O299        H319   0.989       .  S
O299        H328   0.988       .  S
O300        C301   1.280       .  A
C301       C5141   1.461       .  S
O302        H321   0.990       .  S
O302        H325   0.990       .  S
O303        H317   0.990       .  S
O303        H324   0.990       .  S
O304        C308   1.267       .  A
O305        C308   1.333       .  A
O306        H316   0.990       .  S
O307        H320   0.990       .  S
C308       C5093   1.561   1_455  S
Zr331       O332   2.437       .  S
Zr331       O333   2.453       .  S
Zr331       O334   2.429       .  S
Zr331       O337   2.450       .  S
Zr331       O339   2.368       .  S
Zr331       O340   2.398       .  S
Zr331       O341   2.420       .  S
Zr331       O342   2.364       .  S
O332        H388   0.987       .  S
O332        H396   0.991       .  S
O333        C353   1.288       .  A
O334        C355   1.281       .  A
O335       Zr345   2.652       .  S
O335        C354   1.331       .  A
O336       Zr344   2.429       .  S
O336        C355   1.283       .  A
O337        C354   1.286       .  A
O338       Zr346   2.402       .  S
O338        C353   1.274       .  A
O339       Zr344   2.388       .  S
O339       Zr346   2.354       .  S
O340       Zr345   2.414       .  S
O340       Zr346   2.418       .  S
O340        H375   0.963       .  S
O341       Zr344   2.391       .  S
O341       Zr361   2.424       .  S
O341        H378   0.966       .  S
O342       Zr345   2.355       .  S
O342       Zr361   2.356       .  S
Zr343       O368   2.443       .  S
Zr343       O362   2.415       .  S
Zr343       O370   2.423       .  S
Zr343       O358   2.421       .  S
Zr343       O349   2.360       .  S
Zr343       O350   2.425       .  S
Zr343       O351   2.380       .  S
Zr343       O352   2.406       .  S
Zr344       O363   2.435       .  S
Zr344       O356   2.438       .  S
Zr344       O357   2.429       .  S
Zr344       O350   2.399       .  S
Zr344       O351   2.370       .  S
Zr345       O347   2.434       .  S
Zr345       O369   2.434       .  S
Zr345       O371   2.664       .  S
Zr345       O349   2.355       .  S
Zr345       O352   2.411       .  S
Zr346       O372   2.435       .  S
Zr346       O373   2.433       .  S
Zr346       O348   2.443       .  S
Zr346       O349   2.367       .  S
Zr346       O350   2.415       .  S
O347        H384   0.990       .  S
O348        H379   0.990       .  S
O348        H393   0.989       .  S
O350        H376   0.966       .  S
O351       Zr361   2.366       .  S
O352       Zr361   2.424       .  S
O352        H377   0.966       .  S
C353       C5026   1.468       .  S
C354       C5090   1.561       .  S
C355       C4978   1.473       .  S
O356        H392   0.990       .  S
O357        C359   1.284       .  A
O358        C359   1.279       .  A
C359       C4994   1.484       .  S
O360       Zr361   2.438       .  S
O360        H389   0.989       .  S
Zr361       O364   2.438       .  S
Zr361       O365   2.434       .  S
Zr361       O366   2.407       .  S
O362        C367   1.270       .  A
O363        H380   0.990       .  S
O363        H395   0.990       .  S
O364        H381   0.991       .  S
O365        H385   0.990       .  S
O365        H394   0.990       .  S
O366        C367   1.275       .  A
C367       C5042   1.464       .  S
O368        H387   0.989       .  S
O368        H391   0.989       .  S
O369        H383   0.990       .  S
O369        H390   0.990       .  S
O370        C374   1.280       .  A
O371        C374   1.332       .  A
O372        H382   0.990       .  S
O373        H386   0.990       .  S
C374       C5010   1.557       .  S
Zr397       O398   2.442       .  S
Zr397       O399   2.438       .  S
Zr397       O400   2.415       .  S
Zr397       O403   2.448       .  S
Zr397       O405   2.374       .  S
Zr397       O406   2.401       .  S
Zr397       O407   2.420       .  S
Zr397       O408   2.354       .  S
O398        H454   0.991       .  S
O398        H462   0.990       .  S
O399        C419   1.284       .  A
O400        C421   1.279       .  A
O401       Zr411   2.650       .  S
O401        C420   1.330       .  A
O402       Zr410   2.450       .  S
O402        C421   1.286       .  A
O403        C420   1.286       .  A
O404       Zr412   2.397       .  S
O404        C419   1.273       .  A
O405       Zr410   2.383       .  S
O405       Zr412   2.364       .  S
O406       Zr411   2.428       .  S
O406       Zr412   2.420       .  S
O406        H441   0.965       .  S
O407       Zr410   2.391       .  S
O407       Zr427   2.428       .  S
O407        H444   0.965       .  S
O408       Zr411   2.341       .  S
O408       Zr427   2.358       .  S
Zr409       O434   2.445       .  S
Zr409       O428   2.412       .  S
Zr409       O436   2.431       .  S
Zr409       O424   2.395       .  S
Zr409       O415   2.367       .  S
Zr409       O416   2.418       .  S
Zr409       O417   2.386       .  S
Zr409       O418   2.396       .  S
Zr410       O429   2.438       .  S
Zr410       O422   2.435       .  S
Zr410       O423   2.422       .  S
Zr410       O416   2.402       .  S
Zr410       O417   2.388       .  S
Zr411       O413   2.435       .  S
Zr411       O435   2.441       .  S
Zr411       O437   2.653       .  S
Zr411       O415   2.357       .  S
Zr411       O418   2.414       .  S
Zr412       O438   2.434       .  S
Zr412       O439   2.435       .  S
Zr412       O414   2.443       .  S
Zr412       O415   2.365       .  S
Zr412       O416   2.399       .  S
O413        H450   0.990       .  S
O414        H445   0.990       .  S
O414        H459   0.990       .  S
O416        H442   0.966       .  S
O417       Zr427   2.362       .  S
O418       Zr427   2.420       .  S
O418        H443   0.966       .  S
C419       C4962   1.481       .  S
C420       C5013   1.553       .  S
C421       C4914   1.482       .  S
O422        H458   0.990       .  S
O423        C425   1.283       .  A
O424        C425   1.276       .  A
C425       C4898   1.471       .  S
O426       Zr427   2.434       .  S
O426        H455   0.990       .  S
Zr427       O430   2.434       .  S
Zr427       O431   2.437       .  S
Zr427       O432   2.421       .  S
O428        C433   1.275       .  A
O429        H446   0.990       .  S
O429        H461   0.989       .  S
O430        H447   0.990       .  S
O431        H451   0.990       .  S
O431        H460   0.990       .  S
O432        C433   1.275       .  A
C433       C4946   1.491       .  S
O434        H453   0.991       .  S
O434        H457   0.990       .  S
O435        H449   0.990       .  S
O435        H456   0.989       .  S
O436        C440   1.281       .  A
O437        C440   1.331       .  A
O438        H448   0.990       .  S
O439        H452   0.990       .  S
C440       C4930   1.555       .  S
Zr463       O464   2.446       .  S
Zr463       O465   2.414       .  S
Zr463       O466   2.420       .  S
Zr463       O469   2.392       .  S
Zr463       O471   2.366       .  S
Zr463       O472   2.402       .  S
Zr463       O473   2.403       .  S
Zr463       O474   2.391       .  S
O464        H520   0.991       .  S
O464        H528   0.991       .  S
O465        C485   1.275       .  A
O466        C487   1.279       .  A
O467       Zr477   2.666       .  S
O467        C486   1.333       .  A
O468       Zr476   2.428       .  S
O468        C487   1.284       .  A
O469        C486   1.271       .  A
O470       Zr478   2.409       .  S
O470        C485   1.275       .  A
O471       Zr476   2.381       .  S
O471       Zr478   2.364       .  S
O472       Zr477   2.408       .  S
O472       Zr478   2.410       .  S
O472        H507   0.966       .  S
O473       Zr476   2.399       .  S
O473       Zr493   2.419       .  S
O473        H510   0.966       .  S
O474       Zr477   2.392       .  S
O474       Zr493   2.380       .  S
Zr475       O500   2.439       .  S
Zr475       O494   2.427       .  S
Zr475       O502   2.402       .  S
Zr475       O490   2.420       .  S
Zr475       O481   2.391       .  S
Zr475       O482   2.408       .  S
Zr475       O483   2.353       .  S
Zr475       O484   2.393       .  S
Zr476       O495   2.440       .  S
Zr476       O488   2.436       .  S
Zr476       O489   2.425       .  S
Zr476       O482   2.398       .  S
Zr476       O483   2.377       .  S
Zr477       O479   2.436       .  S
Zr477       O501   2.435       .  S
Zr477       O503   2.670       .  S
Zr477       O481   2.375       .  S
Zr477       O484   2.406       .  S
Zr478       O504   2.438       .  S
Zr478       O505   2.437       .  S
Zr478       O480   2.437       .  S
Zr478       O481   2.367       .  S
Zr478       O482   2.424       .  S
O479        H516   0.990       .  S
O480        H511   0.990       .  S
O480        H525   0.990       .  S
O482        H508   0.966       .  S
O483       Zr493   2.348       .  S
O484       Zr493   2.399       .  S
O484        H509   0.964       .  S
C485       C4882   1.472       .  S
C486       C5109   1.554       .  S
C487       C4834   1.483       .  S
O488        H524   0.990       .  S
O489        C491   1.283       .  A
O490        C491   1.282       .  A
C491       C4850   1.472       .  S
O492       Zr493   2.435       .  S
O492        H521   0.990       .  S
Zr493       O496   2.435       .  S
Zr493       O497   2.442       .  S
Zr493       O498   2.411       .  S
O494        C499   1.283       .  A
O495        H512   0.990       .  S
O495        H527   0.990       .  S
O496        H513   0.990       .  S
O497        H517   0.990       .  S
O497        H526   0.990       .  S
O498        C499   1.278       .  A
C499       C4866   1.473       .  S
O500        H519   0.990       .  S
O500        H523   0.990       .  S
O501        H515   0.990       .  S
O501        H522   0.990       .  S
O502        C506   1.274       .  A
O503        C506   1.333       .  A
O504        H514   0.990       .  S
O505        H518   0.990       .  S
C506       C4933   1.559       .  S
Zr529       O530   2.449       .  S
Zr529       O531   2.480       .  S
Zr529       O532   2.426       .  S
Zr529       O535   2.437       .  S
Zr529       O537   2.406       .  S
Zr529       O538   2.378       .  S
Zr529       O539   2.421       .  S
Zr529       O540   2.404       .  S
O530        H586   0.990       .  S
O530        H594   0.991       .  S
O531        C551   1.289       .  A
O532        C553   1.280       .  A
O533       Zr543   2.432       .  S
O533        C552   1.282       .  A
O534       Zr542   2.671   1_565  S
O534        C553   1.336   1_565  A
O535        C552   1.283       .  A
O536       Zr544   2.428       .  S
O536        C551   1.282       .  A
O537       Zr542   2.450       .  S
O537       Zr544   2.396       .  S
O538       Zr543   2.357       .  S
O538       Zr544   2.386       .  S
O538        H573   0.963       .  S
O539       Zr542   2.429       .  S
O539       Zr559   2.344       .  S
O539        H576   0.959       .  S
O540       Zr543   2.401       .  S
O540       Zr559   2.392       .  S
Zr541       O566   2.441       .  S
Zr541       O560   2.431       .  S
Zr541       O568   2.413       .  S
Zr541       O556   2.331       .  S
Zr541       O547   2.393       .  S
Zr541       O548   2.416       .  S
Zr541       O549   2.383       .  S
Zr541       O550   2.376       .  S
Zr542       O561   2.435   1_545  S
Zr542       O554   2.433   1_545  S
Zr542       O555   2.729       .  S
Zr542       O548   2.413       .  S
Zr542       O549   2.386       .  S
Zr543       O545   2.437       .  S
Zr543       O567   2.437       .  S
Zr543       O569   2.435       .  S
Zr543       O547   2.389       .  S
Zr543       O550   2.383       .  S
Zr544       O570   2.436       .  S
Zr544       O571   2.438       .  S
Zr544       O546   2.440       .  S
Zr544       O547   2.422       .  S
Zr544       O548   2.395       .  S
O545        H582   0.990       .  S
O546        H577   0.990       .  S
O546        H591   0.990       .  S
O548        H574   0.964       .  S
O549       Zr559   2.377       .  S
O550       Zr559   2.336       .  S
O550        H575   0.962       .  S
C551       C4802   1.481       .  S
C552       C4754   1.464       .  S
C553       C4770   1.567   1_545  S
O554        H590   0.990       .  S
O555        C557   1.348       .  A
O556        C557   1.265       .  A
C557       C4786   1.580       .  S
O558       Zr559   2.434       .  S
O558        H587   0.990       .  S
Zr559       O562   2.438       .  S
Zr559       O563   2.442       .  S
Zr559       O564   2.398       .  S
O560        C565   1.281       .  A
O561        H578   0.990       .  S
O561        H593   0.990       .  S
O562        H579   0.990       .  S
O563        H583   0.989       .  S
O563        H592   0.990       .  S
O564        C565   1.278       .  A
C565       C4818   1.460       .  S
O566        H585   0.991       .  S
O566        H589   0.990       .  S
O567        H581   0.990       .  S
O567        H588   0.990       .  S
O568        C572   1.280       .  A
O569        C572   1.285       .  A
O570        H580   0.990       .  S
O571        H584   0.990       .  S
C572       C4738   1.473       .  S
Zr595       O596   2.443       .  S
Zr595       O597   2.412   1_565  S
Zr595       O598   2.385       .  S
Zr595       O601   2.427       .  S
Zr595       O603   2.399   1_565  S
Zr595       O604   2.373   1_565  S
Zr595       O605   2.408       .  S
Zr595       O606   2.380       .  S
O596        H652   0.990       .  S
O596        H660   0.990       .  S
O597        C617   1.280       .  A
O598        C619   1.274   1_565  A
O599       Zr609   2.384       .  S
O599        C618   1.273       .  A
O600       Zr608   2.690       .  S
O600        C619   1.340       .  A
O601        C618   1.285       .  A
O602       Zr610   2.433       .  S
O602        C617   1.282       .  A
O603       Zr608   2.424       .  S
O603       Zr610   2.378       .  S
O604       Zr609   2.380   1_545  S
O604       Zr610   2.364       .  S
O604        H639   0.966       .  S
O605       Zr608   2.426   1_565  S
O605       Zr625   2.375       .  S
O605        H642   0.965       .  S
O606       Zr609   2.398       .  S
O606       Zr625   2.387       .  S
Zr607       O632   2.442   1_565  S
Zr607       O626   2.455       .  S
Zr607       O634   2.431       .  S
Zr607       O622   2.330   1_565  S
Zr607       O613   2.394   1_565  S
Zr607       O614   2.436   1_565  S
Zr607       O615   2.391       .  S
Zr607       O616   2.372       .  S
Zr608       O627   2.434   1_545  S
Zr608       O620   2.434       .  S
Zr608       O621   2.744       .  S
Zr608       O614   2.398       .  S
Zr608       O615   2.383   1_545  S
Zr609       O611   2.435       .  S
Zr609       O633   2.437       .  S
Zr609       O635   2.417       .  S
Zr609       O613   2.380   1_565  S
Zr609       O616   2.382       .  S
Zr610       O636   2.436       .  S
Zr610       O637   2.436       .  S
Zr610       O612   2.438       .  S
Zr610       O613   2.425       .  S
Zr610       O614   2.375       .  S
O611        H648   0.989       .  S
O612        H643   0.990       .  S
O612        H657   0.990       .  S
O614        H640   0.965       .  S
O615       Zr625   2.378       .  S
O616       Zr625   2.366       .  S
O616        H641   0.964       .  S
C617       C4722   1.474       .  S
C618       C4690   1.453       .  S
C619       C4789   1.576       .  S
O620        H656   0.990       .  S
O621        C623   1.346       .  A
O622        C623   1.258       .  A
C623       C4706   1.600       .  S
O624       Zr625   2.438       .  S
O624        H653   0.990       .  S
Zr625       O628   2.436       .  S
Zr625       O629   2.439       .  S
Zr625       O630   2.403       .  S
O626        C631   1.286       .  A
O627        H644   0.990   1_565  S
O627        H659   0.990       .  S
O628        H645   0.990       .  S
O629        H649   0.990       .  S
O629        H658   0.990       .  S
O630        C631   1.279       .  A
C631       C4997   1.461       .  S
O632        H651   0.990   1_545  S
O632        H655   0.990       .  S
O633        H647   0.989   1_565  S
O633        H654   0.990       .  S
O634        C638   1.279       .  A
O635        C638   1.282       .  A
O636        H646   0.990       .  S
O637        H650   0.990       .  S
C638       C4965   1.485       .  S
Zr661       O662   2.451       .  S
Zr661       O663   2.438       .  S
Zr661       O664   2.310       .  S
Zr661       O667   2.407       .  S
Zr661       O670   2.370       .  S
Zr661       O671   2.444       .  S
Zr661       O672   2.393       .  S
Zr661       O669   2.277       .  S
O662        H718   0.990       .  S
O662        H726   0.991       .  S
O663        C683   1.277       .  A
O664        C685   1.258       .  A
O665       Zr675   2.411       .  S
O665        C684   1.279       .  A
O666       Zr674   2.758       .  S
O666        C685   1.351       .  A
O667        C684   1.277       .  A
O668       Zr676   2.409       .  S
O668        C683   1.273       .  A
O669       Zr674   2.294       .  S
O669       Zr676   2.288       .  S
O670       Zr675   2.378       .  S
O670       Zr676   2.354       .  S
O670        H705   0.966       .  S
O671       Zr674   2.388       .  S
O671       Zr691   2.370       .  S
O671        H708   0.965       .  S
O672       Zr675   2.388       .  S
O672       Zr691   2.423       .  S
Zr673       O698   2.451       .  S
Zr673       O692   2.467       .  S
Zr673       O700   2.441       .  S
Zr673       O688   2.403       .  S
Zr673       O679   2.403       .  S
Zr673       O680   2.435       .  S
Zr673       O681   2.403       .  S
Zr673       O682   2.372       .  S
Zr674       O693   2.435       .  S
Zr674       O686   2.436   1_565  S
Zr674       O687   2.688       .  S
Zr674       O680   2.423       .  S
Zr674       O681   2.441       .  S
Zr675       O677   2.434       .  S
Zr675       O699   2.438       .  S
Zr675       O701   2.389       .  S
Zr675       O679   2.404       .  S
Zr675       O682   2.372       .  S
Zr676       O702   2.435       .  S
Zr676       O703   2.438       .  S
Zr676       O678   2.437   1_565  S
Zr676       O679   2.389       .  S
Zr676       O680   2.365       .  S
O677        H714   0.990       .  S
O678        H709   0.990       .  S
O678        H723   0.989       .  S
O680        H706   0.961       .  S
O681       Zr691   2.395       .  S
O682       Zr691   2.373       .  S
O682        H707   0.963       .  S
C683       C4674   1.460   1_565  S
C684       C4642   1.468       .  S
C685       C4658   1.580       .  S
O686        H722   0.990       .  S
O687        C689   1.339       .  A
O688        C689   1.277       .  A
C689       C4709   1.573   1_565  S
O690       Zr691   2.441       .  S
O690        H719   0.990       .  S
Zr691       O694   2.439       .  S
Zr691       O695   2.437       .  S
Zr691       O696   2.415       .  S
O692        C697   1.286       .  A
O693        H710   0.990       .  S
O693        H725   0.990       .  S
O694        H711   0.990       .  S
O695        H715   0.990       .  S
O695        H724   0.990       .  S
O696        C697   1.278       .  A
C697       C4917   1.479       .  S
O698        H717   0.992       .  S
O698        H721   0.989       .  S
O699        H713   0.990       .  S
O699        H720   0.990       .  S
O700        C704   1.284       .  A
O701        C704   1.277       .  A
O702        H712   0.990       .  S
O703        H716   0.990       .  S
C704       C5045   1.472       .  S
Zr727       O728   2.436   1_545  S
Zr727       O729   2.374       .  S
Zr727       O730   2.339   1_545  S
Zr727       O733   2.423       .  S
Zr727       O735   2.408   1_556  S
Zr727       O736   2.370   1_556  S
Zr727       O737   2.404   1_546  S
Zr727       O738   2.373   1_546  S
O728        H784   0.990   1_565  S
O728        H792   0.990       .  S
O729        C749   1.270       .  A
O730        C751   1.266       .  A
O731       Zr741   2.433       .  S
O731        C750   1.285   1_554  A
O732       Zr740   2.702   1_556  S
O732        C751   1.343       .  A
O733        C750   1.282       .  A
O734       Zr742   2.402       .  S
O734        C749   1.280   1_554  A
O735       Zr740   2.400   1_545  S
O735       Zr742   2.376       .  S
O736       Zr741   2.372       .  S
O736       Zr742   2.336       .  S
O736        H771   0.964       .  S
O737       Zr740   2.419       .  S
O737       Zr757   2.369       .  S
O737        H774   0.963       .  S
O738       Zr741   2.394   1_565  S
O738       Zr757   2.410       .  S
Zr739       O764   2.450       .  S
Zr739       O758   2.451       .  S
Zr739       O766   2.402   1_565  S
Zr739       O754   2.389       .  S
Zr739       O745   2.400   1_565  S
Zr739       O746   2.423   1_565  S
Zr739       O747   2.397       .  S
Zr739       O748   2.380       .  S
Zr740       O759   2.436       .  S
Zr740       O752   2.435       .  S
Zr740       O753   2.701       .  S
Zr740       O746   2.405   1_565  S
Zr740       O747   2.433       .  S
Zr741       O743   2.434       .  S
Zr741       O765   2.438       .  S
Zr741       O767   2.432       .  S
Zr741       O745   2.397       .  S
Zr741       O748   2.372   1_545  S
Zr742       O768   2.435       .  S
Zr742       O769   2.435       .  S
Zr742       O744   2.439       .  S
Zr742       O745   2.395       .  S
Zr742       O746   2.349       .  S
O743        H780   0.990       .  S
O744        H775   0.990       .  S
O744        H789   0.990       .  S
O746        H772   0.961       .  S
O747       Zr757   2.401       .  S
O748       Zr757   2.384       .  S
O748        H773   0.965       .  S
C749       C4610   1.438       .  S
C750       C4594   1.478       .  S
C751       C4773   1.558       .  S
O752        H788   0.990       .  S
O753        C755   1.342       .  A
O754        C755   1.273       .  A
C755       C4661   1.575       .  S
O756       Zr757   2.437   1_556  S
O756        H785   0.990       .  S
Zr757       O760   2.434       .  S
Zr757       O761   2.442       .  S
Zr757       O762   2.384       .  S
O758        C763   1.284       .  A
O759        H776   0.990       .  S
O759        H791   0.990       .  S
O760        H777   0.990       .  S
O761        H781   0.990       .  S
O761        H790   0.990       .  S
O762        C763   1.273       .  A
C763       C4626   1.462       .  S
O764        H783   0.991       .  S
O764        H787   0.991       .  S
O765        H779   0.990       .  S
O765        H786   0.990       .  S
O766        C770   1.274       .  A
O767        C770   1.281       .  A
O768        H778   0.990       .  S
O769        H782   0.990       .  S
C770       C4578   1.464       .  S
Zr793       O794   2.439       .  S
Zr793       O795   2.403       .  S
Zr793       O796   2.338       .  S
Zr793       O799   2.408       .  S
Zr793       O801   2.391       .  S
Zr793       O802   2.372       .  S
Zr793       O803   2.408       .  S
Zr793       O804   2.372       .  S
O794        H850   0.989       .  S
O794        H858   0.990       .  S
O795        C815   1.276       .  A
O796        C817   1.266       .  A
O797       Zr807   2.423       .  S
O797        C816   1.283       .  A
O798       Zr806   2.706       .  S
O798        C817   1.343       .  A
O799        C816   1.278       .  A
O800       Zr808   2.407       .  S
O800        C815   1.281       .  A
O801       Zr806   2.397       .  S
O801       Zr808   2.365       .  S
O802       Zr807   2.374       .  S
O802       Zr808   2.375       .  S
O802        H837   0.966       .  S
O803       Zr806   2.423       .  S
O803       Zr823   2.398       .  S
O803        H840   0.966       .  S
O804       Zr807   2.387       .  S
O804       Zr823   2.390       .  S
Zr805       O830   2.442       .  S
Zr805       O824   2.447       .  S
Zr805       O832   2.404       .  S
Zr805       O820   2.352   1_554  S
Zr805       O811   2.386       .  S
Zr805       O812   2.418       .  S
Zr805       O813   2.391       .  S
Zr805       O814   2.375       .  S
Zr806       O825   2.433       .  S
Zr806       O818   2.434   1_554  S
Zr806       O819   2.701       .  S
Zr806       O812   2.419       .  S
Zr806       O813   2.406       .  S
Zr807       O809   2.435       .  S
Zr807       O831   2.439       .  S
Zr807       O833   2.406       .  S
Zr807       O811   2.389       .  S
Zr807       O814   2.386       .  S
Zr808       O834   2.439   1_554  S
Zr808       O835   2.437   1_554  S
Zr808       O810   2.435   1_554  S
Zr808       O811   2.393       .  S
Zr808       O812   2.391       .  S
O809        H846   0.990       .  S
O810        H841   0.990       .  S
O810        H855   0.990       .  S
O812        H838   0.966   1_554  S
O813       Zr823   2.377       .  S
O814       Zr823   2.377       .  S
O814        H839   0.966       .  S
C815       C5397   1.457       .  S
C816       C5269   1.472       .  S
C817       C4546   1.577       .  S
O818        H854   0.990       .  S
O819        C821   1.340   1_554  A
O820        C821   1.263       .  A
C821       C4530   1.577       .  S
O822       Zr823   2.437       .  S
O822        H851   0.990       .  S
Zr823       O826   2.436       .  S
Zr823       O827   2.438       .  S
Zr823       O828   2.410       .  S
O824        C829   1.284       .  A
O825        H842   0.990       .  S
O825        H857   0.990       .  S
O826        H843   0.990       .  S
O827        H847   0.990       .  S
O827        H856   0.990       .  S
O828        C829   1.278       .  A
C829       C4562   1.470       .  S
O830        H849   0.990   1_554  S
O830        H853   0.990       .  S
O831        H845   0.989       .  S
O831        H852   0.989       .  S
O832        C836   1.276       .  A
O833        C836   1.282       .  A
O834        H844   0.989   1_556  S
O835        H848   0.990       .  S
C836       C4514   1.476       .  S
Zr859       O860   2.441       .  S
Zr859       O861   2.468       .  S
Zr859       O862   2.465       .  S
Zr859       O865   2.429       .  S
Zr859       O867   2.401       .  S
Zr859       O868   2.379       .  S
Zr859       O869   2.407       .  S
Zr859       O870   2.420       .  S
O860        H916   0.990       .  S
O860        H924   0.989       .  S
O861        C881   1.289       .  A
O862        C883   1.286   1_556  A
O863       Zr873   2.393       .  S
O863        C882   1.266       .  A
O864       Zr872   2.717       .  S
O864        C883   1.345       .  A
O865        C882   1.282       .  A
O866       Zr874   2.395       .  S
O866        C881   1.274       .  A
O867       Zr872   2.437   1_556  S
O867       Zr874   2.412       .  S
O868       Zr873   2.378       .  S
O868       Zr874   2.335       .  S
O868        H903   0.950       .  S
O869       Zr872   2.419   1_556  S
O869       Zr889   2.342       .  S
O869        H906   0.954       .  S
O870       Zr873   2.406       .  S
O870       Zr889   2.390       .  S
Zr871       O896   2.441       .  S
Zr871       O890   2.450   1_556  S
Zr871       O898   2.408       .  S
Zr871       O886   2.388   1_556  S
Zr871       O877   2.421       .  S
Zr871       O878   2.414       .  S
Zr871       O879   2.391   1_556  S
Zr871       O880   2.388       .  S
Zr872       O891   2.436       .  S
Zr872       O884   2.434       .  S
Zr872       O885   2.701       .  S
Zr872       O878   2.441   1_554  S
Zr872       O879   2.420       .  S
Zr873       O875   2.437       .  S
Zr873       O897   2.436       .  S
Zr873       O899   2.410       .  S
Zr873       O877   2.390       .  S
Zr873       O880   2.387       .  S
Zr874       O900   2.437       .  S
Zr874       O901   2.440       .  S
Zr874       O876   2.438       .  S
Zr874       O877   2.412       .  S
Zr874       O878   2.333       .  S
O875        H912   0.989       .  S
O876        H907   0.990       .  S
O876        H921   0.990       .  S
O878        H904   0.960       .  S
O879       Zr889   2.398   1_554  S
O880       Zr889   2.322       .  S
O880        H905   0.961       .  S
C881       C4501   1.468       .  S
C882       C4466   1.444       .  S
C883       C4482   1.602       .  S
O884        H920   0.990       .  S
O885        C887   1.340       .  A
O886        C887   1.268       .  A
C887       C4549   1.573       .  S
O888       Zr889   2.435       .  S
O888        H917   0.990       .  S
Zr889       O892   2.440   1_556  S
Zr889       O893   2.443       .  S
Zr889       O894   2.373   1_556  S
O890        C895   1.285       .  A
O891        H908   0.990       .  S
O891        H923   0.990       .  S
O892        H909   0.990       .  S
O893        H913   0.990       .  S
O893        H922   0.990       .  S
O894        C895   1.273       .  A
C895       C5234   1.477       .  S
O896        H915   0.989       .  S
O896        H919   0.989       .  S
O897        H911   0.990       .  S
O897        H918   0.990       .  S
O898        C902   1.275       .  A
O899        C902   1.272       .  A
O900        H910   0.990       .  S
O901        H914   0.990       .  S
C902       C5442   1.482       .  S
Zr925       O926   2.441       .  S
Zr925       O927   2.447       .  S
Zr925       O928   2.351   1_556  S
Zr925       O931   2.378       .  S
Zr925       O933   2.392       .  S
Zr925       O934   2.375       .  S
Zr925       O935   2.424       .  S
Zr925       O936   2.385       .  S
O926        H982   0.991       .  S
O926        H990   0.990       .  S
O927        C947   1.283       .  A
O928        C949   1.256       .  A
O929       Zr939   2.431       .  S
O929        C948   1.284       .  A
O930       Zr938   2.738   1_554  S
O930        C949   1.345       .  A
O931        C948   1.271       .  A
O932       Zr940   2.385       .  S
O932        C947   1.275       .  A
O933       Zr938   2.394       .  S
O933       Zr940   2.377       .  S
O934       Zr939   2.391       .  S
O934       Zr940   2.374       .  S
O934        H969   0.966       .  S
O935       Zr938   2.412       .  S
O935       Zr955   2.380       .  S
O935        H972   0.965   1_556  S
O936       Zr939   2.396       .  S
O936       Zr955   2.400       .  S
Zr937       O962   2.439       .  S
Zr937       O956   2.400       .  S
Zr937       O964   2.418       .  S
Zr937       O952   2.330       .  S
Zr937       O943   2.367       .  S
Zr937       O944   2.405       .  S
Zr937       O945   2.392       .  S
Zr937       O946   2.364       .  S
Zr938       O957   2.433   1_556  S
Zr938       O950   2.435       .  S
Zr938       O951   2.707       .  S
Zr938       O944   2.424       .  S
Zr938       O945   2.404       .  S
Zr939       O941   2.434       .  S
Zr939       O963   2.438       .  S
Zr939       O965   2.424       .  S
Zr939       O943   2.391       .  S
Zr939       O946   2.383       .  S
Zr940       O966   2.439       .  S
Zr940       O967   2.435       .  S
Zr940       O942   2.437       .  S
Zr940       O943   2.388       .  S
Zr940       O944   2.386       .  S
O941        H978   0.990       .  S
O942        H973   0.990       .  S
O942        H987   0.990       .  S
O944        H970   0.966       .  S
O945       Zr955   2.367       .  S
O946       Zr955   2.372       .  S
O946        H971   0.966       .  S
C947       C4434   1.456       .  S
C948       C4389   1.456       .  S
C949       C4485   1.596       .  S
O950        H986   0.989       .  S
O951        C953   1.344       .  A
O952        C953   1.265       .  A
C953       C4418   1.573       .  S
O954       Zr955   2.437   1_554  S
O954        H983   0.990       .  S
Zr955       O958   2.435   1_556  S
Zr955       O959   2.438       .  S
Zr955       O960   2.416   1_556  S
O956        C961   1.277       .  A
O957        H974   0.990       .  S
O957        H989   0.990       .  S
O958        H975   0.990       .  S
O959        H979   0.990       .  S
O959        H988   0.990   1_556  S
O960        C961   1.282   1_554  A
C961       C4450   1.459   1_556  S
O962        H981   0.989       .  S
O962        H985   0.990       .  S
O963        H977   0.989       .  S
O963        H984   0.990       .  S
O964        C968   1.279       .  A
O965        C968   1.285       .  A
O966        H976   0.990       .  S
O967        H980   0.990       .  S
C968       C4402   1.485       .  S
Zr991       O992   2.436       .  S
Zr991       O993   2.482   1_554  S
Zr991       O994   2.397   1_554  S
Zr991       O997   2.425       .  S
Zr991       O999   2.386   1_554  S
Zr991      O1000   2.376       .  S
Zr991      O1001   2.416       .  S
Zr991      O1002   2.327       .  S
O992       H1048   0.989       .  S
O992       H1056   0.990       .  S
O993       C1013   1.292       .  A
O994       C1015   1.272       .  A
O995      Zr1005   2.421       .  S
O995       C1014   1.275       .  A
O996      Zr1004   2.681       .  S
O996       C1015   1.337       .  A
O997       C1014   1.281       .  A
O998      Zr1006   2.376   1_556  S
O998       C1013   1.268       .  A
O999      Zr1004   2.427       .  S
O999      Zr1006   2.401   1_556  S
O1000     Zr1005   2.382       .  S
O1000     Zr1006   2.327       .  S
O1000      H1035   0.962       .  S
O1001     Zr1004   2.435   1_554  S
O1001     Zr1021   2.333       .  S
O1001      H1038   0.960       .  S
O1002     Zr1005   2.272       .  S
O1002     Zr1021   2.317       .  S
Zr1003     O1028   2.450       .  S
Zr1003     O1022   2.445       .  S
Zr1003     O1030   2.434       .  S
Zr1003     O1018   2.443       .  S
Zr1003     O1009   2.415       .  S
Zr1003     O1010   2.398       .  S
Zr1003     O1011   2.399       .  S
Zr1003     O1012   2.383       .  S
Zr1004     O1023   2.436       .  S
Zr1004     O1016   2.434       .  S
Zr1004     O1017   2.703       .  S
Zr1004     O1010   2.414   1_556  S
Zr1004     O1011   2.434   1_556  S
Zr1005     O1007   2.437       .  S
Zr1005     O1029   2.436       .  S
Zr1005     O1031   2.374       .  S
Zr1005     O1009   2.406       .  S
Zr1005     O1012   2.391       .  S
Zr1006     O1032   2.438       .  S
Zr1006     O1033   2.438       .  S
Zr1006     O1008   2.444   1_554  S
Zr1006     O1009   2.404       .  S
Zr1006     O1010   2.330       .  S
O1007      H1044   0.990       .  S
O1008      H1039   0.989       .  S
O1008      H1053   0.990       .  S
O1010      H1036   0.950       .  S
O1011     Zr1021   2.410       .  S
O1012     Zr1021   2.339       .  S
O1012      H1037   0.965       .  S
C1013      C4370   1.503       .  S
C1014      C4338   1.475       .  S
C1015      C4421   1.567       .  S
O1016      H1052   0.990       .  S
O1017      C1019   1.342       .  A
O1018      C1019   1.284   1_554  A
C1019      C4533   1.584       .  S
O1020     Zr1021   2.438       .  S
O1020      H1049   0.990       .  S
Zr1021     O1024   2.435       .  S
Zr1021     O1025   2.442       .  S
Zr1021     O1026   2.402       .  S
O1022      C1027   1.283       .  A
O1023      H1040   0.990       .  S
O1023      H1055   0.990       .  S
O1024      H1041   0.989       .  S
O1025      H1045   0.990       .  S
O1025      H1054   0.989       .  S
O1026      C1027   1.276       .  A
C1027      C4354   1.473       .  S
O1028      H1047   0.990       .  S
O1028      H1051   0.989       .  S
O1029      H1043   0.990       .  S
O1029      H1050   0.989       .  S
O1030      C1034   1.282       .  A
O1031      C1034   1.271       .  A
O1032      H1042   0.989       .  S
O1033      H1046   0.990       .  S
C1034      C4325   1.446       .  S
Zr1057     O1058   2.433       .  S
Zr1057     O1059   2.431       .  S
Zr1057     O1060   2.428       .  S
Zr1057     O1063   2.435       .  S
Zr1057     O1065   2.390       .  S
Zr1057     O1066   2.415       .  S
Zr1057     O1067   2.421       .  S
Zr1057     O1068   2.378       .  S
O1058      H1114   0.985       .  S
O1058      H1122   0.990   1_554  S
O1059      C1079   1.277       .  A
O1060      C1081   1.278       .  A
O1061     Zr1071   2.656       .  S
O1061      C1080   1.331       .  A
O1062     Zr1070   2.424       .  S
O1062      C1081   1.282       .  A
O1063      C1080   1.282   1_565  A
O1064     Zr1072   2.404       .  S
O1064      C1079   1.268       .  A
O1065     Zr1070   2.374       .  S
O1065     Zr1072   2.388       .  S
O1066     Zr1071   2.413   1_565  S
O1066     Zr1072   2.427       .  S
O1066      H1101   0.966       .  S
O1067     Zr1070   2.392       .  S
O1067     Zr1087   2.398       .  S
O1067      H1104   0.966       .  S
O1068     Zr1071   2.370   1_565  S
O1068     Zr1087   2.360       .  S
Zr1069     O1094   2.446       .  S
Zr1069     O1088   2.418       .  S
Zr1069     O1096   2.442   1_565  S
Zr1069     O1084   2.437       .  S
Zr1069     O1075   2.355       .  S
Zr1069     O1076   2.412       .  S
Zr1069     O1077   2.370       .  S
Zr1069     O1078   2.411   1_565  S
Zr1070     O1089   2.438       .  S
Zr1070     O1082   2.434       .  S
Zr1070     O1083   2.432       .  S
Zr1070     O1076   2.399       .  S
Zr1070     O1077   2.365       .  S
Zr1071     O1073   2.436       .  S
Zr1071     O1095   2.432       .  S
Zr1071     O1097   2.674       .  S
Zr1071     O1075   2.341   1_545  S
Zr1071     O1078   2.430       .  S
Zr1072     O1098   2.433       .  S
Zr1072     O1099   2.433       .  S
Zr1072     O1074   2.442       .  S
Zr1072     O1075   2.345       .  S
Zr1072     O1076   2.434       .  S
O1073      H1110   0.990       .  S
O1074      H1105   0.990       .  S
O1074      H1119   0.990       .  S
O1076      H1102   0.966       .  S
O1077     Zr1087   2.373       .  S
O1078     Zr1087   2.409   1_545  S
O1078      H1103   0.966       .  S
C1079      C4341   1.476       .  S
C1080      C4274   1.562   1_554  S
C1081      C4453   1.488       .  S
O1082      H1118   0.990       .  S
O1083      C1085   1.284       .  A
O1084      C1085   1.283       .  A
C1085      C4258   1.487       .  S
O1086     Zr1087   2.438       .  S
O1086      H1115   0.990       .  S
Zr1087     O1090   2.436       .  S
Zr1087     O1091   2.433   1_565  S
Zr1087     O1092   2.390       .  S
O1088      C1093   1.280       .  A
O1089      H1106   0.990       .  S
O1089      H1121   0.989       .  S
O1090      H1107   0.990       .  S
O1091      H1111   0.990       .  S
O1091      H1120   0.990       .  S
O1092      C1093   1.273       .  A
C1093      C4309   1.455       .  S
O1094      H1113   0.990   1_565  S
O1094      H1117   0.990       .  S
O1095      H1109   0.990       .  S
O1095      H1116   0.990       .  S
O1096      C1100   1.286       .  A
O1097      C1100   1.335       .  A
O1098      H1108   0.990       .  S
O1099      H1112   0.990       .  S
C1100      C4293   1.571       .  S
Zr1123     O1124   2.450   1_565  S
Zr1123     O1125   2.448   1_565  S
Zr1123     O1126   2.407       .  S
Zr1123     O1129   2.381   1_565  S
Zr1123     O1131   2.372       .  S
Zr1123     O1132   2.398   1_565  S
Zr1123     O1133   2.428       .  S
Zr1123     O1134   2.387       .  S
O1124      H1180   0.990       .  S
O1124      H1188   0.989   1_545  S
O1125      C1145   1.284       .  A
O1126      C1147   1.269       .  A
O1127     Zr1137   2.688       .  S
O1127      C1146   1.339       .  A
O1128     Zr1136   2.442       .  S
O1128      C1147   1.279       .  A
O1129      C1146   1.271       .  A
O1130     Zr1138   2.431       .  S
O1130      C1145   1.281       .  A
O1131     Zr1136   2.406       .  S
O1131     Zr1138   2.355   1_565  S
O1132     Zr1137   2.404       .  S
O1132     Zr1138   2.412       .  S
O1132      H1167   0.966       .  S
O1133     Zr1136   2.416       .  S
O1133     Zr1153   2.414       .  S
O1133      H1170   0.965       .  S
O1134     Zr1137   2.372   1_565  S
O1134     Zr1153   2.376       .  S
Zr1135     O1160   2.444       .  S
Zr1135     O1154   2.411       .  S
Zr1135     O1162   2.394       .  S
Zr1135     O1150   2.417       .  S
Zr1135     O1141   2.389   1_565  S
Zr1135     O1142   2.407       .  S
Zr1135     O1143   2.364       .  S
Zr1135     O1144   2.397       .  S
Zr1136     O1155   2.438       .  S
Zr1136     O1148   2.434       .  S
Zr1136     O1149   2.462       .  S
Zr1136     O1142   2.394       .  S
Zr1136     O1143   2.392       .  S
Zr1137     O1139   2.437       .  S
Zr1137     O1161   2.435       .  S
Zr1137     O1163   2.670       .  S
Zr1137     O1141   2.380       .  S
Zr1137     O1144   2.398   1_545  S
Zr1138     O1164   2.435       .  S
Zr1138     O1165   2.437       .  S
Zr1138     O1140   2.439       .  S
Zr1138     O1141   2.370       .  S
Zr1138     O1142   2.430   1_545  S
O1139      H1176   0.990   1_545  S
O1140      H1171   0.990       .  S
O1140      H1185   0.990       .  S
O1142      H1168   0.965       .  S
O1143     Zr1153   2.372       .  S
O1144     Zr1153   2.393       .  S
O1144      H1169   0.963       .  S
C1145      C4245   1.481       .  S
C1146      C4226   1.564       .  S
C1147      C4210   1.469       .  S
O1148      H1184   0.990       .  S
O1149      C1151   1.290       .  A
O1150      C1151   1.278       .  A
C1151      C4373   1.483       .  S
O1152     Zr1153   2.437       .  S
O1152      H1181   0.990       .  S
Zr1153     O1156   2.435       .  S
Zr1153     O1157   2.437       .  S
Zr1153     O1158   2.431       .  S
O1154      C1159   1.280       .  A
O1155      H1172   0.990       .  S
O1155      H1187   0.990       .  S
O1156      H1173   0.990       .  S
O1157      H1177   0.990       .  S
O1157      H1186   0.990       .  S
O1158      C1159   1.282       .  A
C1159      C4405   1.466       .  S
O1160      H1179   0.990       .  S
O1160      H1183   0.990       .  S
O1161      H1175   0.990       .  S
O1161      H1182   0.990       .  S
O1162      C1166   1.274   1_565  A
O1163      C1166   1.334       .  A
O1164      H1174   0.990       .  S
O1165      H1178   0.989       .  S
C1166      C4277   1.559       .  S
Zr1189     O1190   2.441       .  S
Zr1189     O1191   2.431       .  S
Zr1189     O1192   2.407       .  S
Zr1189     O1195   2.414       .  S
Zr1189     O1197   2.360       .  S
Zr1189     O1198   2.395       .  S
Zr1189     O1199   2.418       .  S
Zr1189     O1200   2.357       .  S
O1190      H1246   0.989       .  S
O1190      H1254   0.991       .  S
O1191      C1211   1.282       .  A
O1192      C1213   1.277       .  A
O1193     Zr1203   2.705       .  S
O1193      C1212   1.341       .  A
O1194     Zr1202   2.424       .  S
O1194      C1213   1.280       .  A
O1195      C1212   1.274       .  A
O1196     Zr1204   2.391       .  S
O1196      C1211   1.275       .  A
O1197     Zr1202   2.393       .  S
O1197     Zr1204   2.362       .  S
O1198     Zr1203   2.423       .  S
O1198     Zr1204   2.411       .  S
O1198      H1233   0.966       .  S
O1199     Zr1202   2.404       .  S
O1199     Zr1219   2.444       .  S
O1199      H1236   0.966       .  S
O1200     Zr1203   2.320       .  S
O1200     Zr1219   2.344       .  S
Zr1201     O1226   2.438       .  S
Zr1201     O1220   2.423       .  S
Zr1201     O1228   2.418       .  S
Zr1201     O1216   2.425       .  S
Zr1201     O1207   2.373       .  S
Zr1201     O1208   2.418       .  S
Zr1201     O1209   2.383       .  S
Zr1201     O1210   2.407       .  S
Zr1202     O1221   2.437       .  S
Zr1202     O1214   2.437       .  S
Zr1202     O1215   2.433       .  S
Zr1202     O1208   2.408       .  S
Zr1202     O1209   2.372       .  S
Zr1203     O1205   2.434   1_545  S
Zr1203     O1227   2.436   1_545  S
Zr1203     O1229   2.675       .  S
Zr1203     O1207   2.367       .  S
Zr1203     O1210   2.399       .  S
Zr1204     O1230   2.435       .  S
Zr1204     O1231   2.436       .  S
Zr1204     O1206   2.435       .  S
Zr1204     O1207   2.365       .  S
Zr1204     O1208   2.405       .  S
O1205      H1242   0.990       .  S
O1206      H1237   0.989       .  S
O1206      H1251   0.990       .  S
O1208      H1234   0.965       .  S
O1209     Zr1219   2.390       .  S
O1210     Zr1219   2.428       .  S
O1210      H1235   0.966       .  S
C1211      C4181   1.468       .  S
C1212      C4229   1.568       .  S
C1213      C4149   1.470       .  S
O1214      H1250   0.990       .  S
O1215      C1217   1.286       .  A
O1216      C1217   1.281       .  A
C1217      C4130   1.494       .  S
O1218     Zr1219   2.439       .  S
O1218      H1247   0.991       .  S
Zr1219     O1222   2.440       .  S
Zr1219     O1223   2.448       .  S
Zr1219     O1224   2.395       .  S
O1220      C1225   1.270       .  A
O1221      H1238   0.987       .  S
O1221      H1253   0.990       .  S
O1222      H1239   0.990       .  S
O1223      H1243   0.990   1_545  S
O1223      H1252   0.990       .  S
O1224      C1225   1.269       .  A
C1225      C4197   1.457       .  S
O1226      H1245   0.988       .  S
O1226      H1249   0.990       .  S
O1227      H1241   0.990       .  S
O1227      H1248   0.990       .  S
O1228      C1232   1.279       .  A
O1229      C1232   1.335       .  A
O1230      H1240   0.990       .  S
O1231      H1244   0.990       .  S
C1232      C4162   1.562       .  S
Zr1255     O1256   2.443       .  S
Zr1255     O1257   2.428       .  S
Zr1255     O1258   2.419       .  S
Zr1255     O1261   2.435       .  S
Zr1255     O1263   2.368       .  S
Zr1255     O1264   2.401       .  S
Zr1255     O1265   2.419       .  S
Zr1255     O1266   2.362       .  S
O1256      H1312   0.990       .  S
O1256      H1320   0.991       .  S
O1257      C1277   1.283       .  A
O1258      C1279   1.280       .  A
O1259     Zr1269   2.667       .  S
O1259      C1278   1.334       .  A
O1260     Zr1268   2.450       .  S
O1260      C1279   1.286       .  A
O1261      C1278   1.283       .  A
O1262     Zr1270   2.396       .  S
O1262      C1277   1.273       .  A
O1263     Zr1268   2.396       .  S
O1263     Zr1270   2.349       .  S
O1264     Zr1269   2.411       .  S
O1264     Zr1270   2.422       .  S
O1264      H1299   0.964       .  S
O1265     Zr1268   2.393       .  S
O1265     Zr1285   2.420   1_545  S
O1265      H1302   0.966       .  S
O1266     Zr1269   2.357       .  S
O1266     Zr1285   2.359   1_545  S
Zr1267     O1292   2.446       .  S
Zr1267     O1286   2.415       .  S
Zr1267     O1294   2.453       .  S
Zr1267     O1282   2.409       .  S
Zr1267     O1273   2.352   1_565  S
Zr1267     O1274   2.432   1_565  S
Zr1267     O1275   2.385       .  S
Zr1267     O1276   2.401       .  S
Zr1268     O1287   2.438       .  S
Zr1268     O1280   2.437       .  S
Zr1268     O1281   2.439   1_545  S
Zr1268     O1274   2.408       .  S
Zr1268     O1275   2.380   1_545  S
Zr1269     O1271   2.435   1_545  S
Zr1269     O1293   2.433       .  S
Zr1269     O1295   2.689       .  S
Zr1269     O1273   2.343       .  S
Zr1269     O1276   2.409   1_545  S
Zr1270     O1296   2.436       .  S
Zr1270     O1297   2.442       .  S
Zr1270     O1272   2.443       .  S
Zr1270     O1273   2.364       .  S
Zr1270     O1274   2.418       .  S
O1271      H1308   0.990       .  S
O1272      H1303   0.990       .  S
O1272      H1317   0.990       .  S
O1274      H1300   0.966       .  S
O1275     Zr1285   2.362       .  S
O1276     Zr1285   2.424       .  S
O1276      H1301   0.966       .  S
C1277      C4117   1.460       .  S
C1278      C4165   1.560       .  S
C1279      C4066   1.476       .  S
O1280      H1316   0.990       .  S
O1281      C1283   1.288       .  A
O1282      C1283   1.278       .  A
C1283      C4082   1.485       .  S
O1284     Zr1285   2.436       .  S
O1284      H1313   0.990       .  S
Zr1285     O1288   2.433       .  S
Zr1285     O1289   2.435       .  S
Zr1285     O1290   2.402       .  S
O1286      C1291   1.272       .  A
O1287      H1304   0.990   1_545  S
O1287      H1319   0.990       .  S
O1288      H1305   0.990   1_565  S
O1289      H1309   0.989       .  S
O1289      H1318   0.990       .  S
O1290      C1291   1.273       .  A
C1291      C4098   1.460       .  S
O1292      H1311   0.990       .  S
O1292      H1315   0.989       .  S
O1293      H1307   0.990       .  S
O1293      H1314   0.990       .  S
O1294      C1298   1.282   1_565  A
O1295      C1298   1.337       .  A
O1296      H1306   0.989       .  S
O1297      H1310   0.991       .  S
C1298      C4290   1.579       .  S
Zr1321     O1322   2.449       .  S
Zr1321     O1323   2.448       .  S
Zr1321     O1324   2.320   1_455  S
Zr1321     O1327   2.427       .  S
Zr1321     O1330   2.370   1_545  S
Zr1321     O1331   2.442   1_455  S
Zr1321     O1332   2.389   1_455  S
Zr1321     O1329   2.271   1_545  S
O1322      H1378   0.990       .  S
O1322      H1386   0.991       .  S
O1323      C1343   1.279       .  A
O1324      C1345   1.263       .  A
O1325     Zr1335   2.387   1_545  S
O1325      C1344   1.275       .  A
O1326     Zr1334   2.751   1_545  S
O1326      C1345   1.352       .  A
O1327      C1344   1.283       .  A
O1328     Zr1336   2.405       .  S
O1328      C1343   1.273   1_565  A
O1329     Zr1334   2.294   1_455  S
O1329     Zr1336   2.292       .  S
O1330     Zr1335   2.380       .  S
O1330     Zr1336   2.362       .  S
O1330      H1365   0.966       .  S
O1331     Zr1334   2.390   1_545  S
O1331     Zr1351   2.362   1_545  S
O1331      H1368   0.964       .  S
O1332     Zr1335   2.392   1_645  S
O1332     Zr1351   2.411   1_545  S
Zr1333     O1358   2.448       .  S
Zr1333     O1352   2.453       .  S
Zr1333     O1360   2.438   1_655  S
Zr1333     O1348   2.414       .  S
Zr1333     O1339   2.405   1_655  S
Zr1333     O1340   2.426   1_655  S
Zr1333     O1341   2.402       .  S
Zr1333     O1342   2.367       .  S
Zr1334     O1353   2.435       .  S
Zr1334     O1346   2.435       .  S
Zr1334     O1347   2.682       .  S
Zr1334     O1340   2.425   1_655  S
Zr1334     O1341   2.431       .  S
Zr1335     O1337   2.434       .  S
Zr1335     O1359   2.435       .  S
Zr1335     O1361   2.373       .  S
Zr1335     O1339   2.399       .  S
Zr1335     O1342   2.374   1_455  S
Zr1336     O1362   2.434       .  S
Zr1336     O1363   2.438       .  S
Zr1336     O1338   2.441       .  S
Zr1336     O1339   2.386       .  S
Zr1336     O1340   2.361       .  S
O1337      H1374   0.989       .  S
O1338      H1369   0.990       .  S
O1338      H1383   0.989       .  S
O1340      H1366   0.961       .  S
O1341     Zr1351   2.402       .  S
O1342     Zr1351   2.364       .  S
O1342      H1367   0.963       .  S
C1343      C4213   1.460       .  S
C1344      C4178   1.478       .  S
C1345      C4034   1.570       .  S
O1346      H1382   0.990       .  S
O1347      C1349   1.338       .  A
O1348      C1349   1.278       .  A
C1349      C4050   1.567       .  S
O1350     Zr1351   2.437   1_545  S
O1350      H1379   0.990       .  S
Zr1351     O1354   2.437       .  S
Zr1351     O1355   2.437   1_565  S
Zr1351     O1356   2.394       .  S
O1352      C1357   1.288       .  A
O1353      H1370   0.990       .  S
O1353      H1385   0.990       .  S
O1354      H1371   0.990       .  S
O1355      H1375   0.989   1_545  S
O1355      H1384   0.990       .  S
O1356      C1357   1.274       .  A
C1357      C4981   1.475       .  S
O1358      H1377   0.990       .  S
O1358      H1381   0.990   1_655  S
O1359      H1373   0.990       .  S
O1359      H1380   0.990       .  S
O1360      C1364   1.284       .  A
O1361      C1364   1.273       .  A
O1362      H1372   0.990       .  S
O1363      H1376   0.990       .  S
C1364      C5138   1.454       .  S
Zr1387     O1388   2.444       .  S
Zr1387     O1389   2.441       .  S
Zr1387     O1390   2.361       .  S
Zr1387     O1393   2.393       .  S
Zr1387     O1395   2.392       .  S
Zr1387     O1396   2.367       .  S
Zr1387     O1397   2.417       .  S
Zr1387     O1398   2.387       .  S
O1388      H1444   0.991       .  S
O1388      H1452   0.990       .  S
O1389      C1409   1.283       .  A
O1390      C1411   1.268       .  A
O1391     Zr1401   2.411       .  S
O1391      C1410   1.275       .  A
O1392     Zr1400   2.696       .  S
O1392      C1411   1.341       .  A
O1393      C1410   1.278       .  A
O1394     Zr1402   2.438       .  S
O1394      C1409   1.285       .  A
O1395     Zr1400   2.428       .  S
O1395     Zr1402   2.387       .  S
O1396     Zr1401   2.383       .  S
O1396     Zr1402   2.375       .  S
O1396      H1431   0.965       .  S
O1397     Zr1400   2.413       .  S
O1397     Zr1417   2.378       .  S
O1397      H1434   0.966       .  S
O1398     Zr1401   2.407       .  S
O1398     Zr1417   2.400       .  S
Zr1399     O1424   2.447       .  S
Zr1399     O1418   2.427       .  S
Zr1399     O1426   2.437       .  S
Zr1399     O1414   2.362       .  S
Zr1399     O1405   2.392       .  S
Zr1399     O1406   2.437       .  S
Zr1399     O1407   2.404       .  S
Zr1399     O1408   2.385       .  S
Zr1400     O1419   2.436   1_655  S
Zr1400     O1412   2.434       .  S
Zr1400     O1413   2.714       .  S
Zr1400     O1406   2.419       .  S
Zr1400     O1407   2.387       .  S
Zr1401     O1403   2.442       .  S
Zr1401     O1425   2.440       .  S
Zr1401     O1427   2.442       .  S
Zr1401     O1405   2.388       .  S
Zr1401     O1408   2.382       .  S
Zr1402     O1428   2.436       .  S
Zr1402     O1429   2.437       .  S
Zr1402     O1404   2.438       .  S
Zr1402     O1405   2.417       .  S
Zr1402     O1406   2.391       .  S
O1403      H1440   0.991       .  S
O1404      H1435   0.990       .  S
O1404      H1449   0.990       .  S
O1406      H1432   0.965       .  S
O1407     Zr1417   2.366       .  S
O1408     Zr1417   2.344       .  S
O1408      H1433   0.960       .  S
C1409      C5381   1.496       .  S
C1410      C5365   1.463       .  S
C1411      C4018   1.573       .  S
O1412      H1448   0.990   1_655  S
O1413      C1415   1.339       .  A
O1414      C1415   1.261       .  A
C1415      C4053   1.588       .  S
O1416     Zr1417   2.434       .  S
O1416      H1445   0.990       .  S
Zr1417     O1420   2.437       .  S
Zr1417     O1421   2.438       .  S
Zr1417     O1422   2.425       .  S
O1418      C1423   1.280       .  A
O1419      H1436   0.990       .  S
O1419      H1451   0.990       .  S
O1420      H1437   0.990       .  S
O1421      H1441   0.990       .  S
O1421      H1450   0.990       .  S
O1422      C1423   1.283       .  A
C1423      C5074   1.466       .  S
O1424      H1443   0.989       .  S
O1424      H1447   0.989       .  S
O1425      H1439   0.990       .  S
O1425      H1446   0.989       .  S
O1426      C1430   1.283       .  A
O1427      C1430   1.282       .  A
O1428      H1438   0.990       .  S
O1429      H1442   0.989       .  S
C1430      C5029   1.474       .  S
Zr1453     O1454   2.448       .  S
Zr1453     O1455   2.474       .  S
Zr1453     O1456   2.427       .  S
Zr1453     O1459   2.462   1_455  S
Zr1453     O1461   2.413       .  S
Zr1453     O1462   2.374       .  S
Zr1453     O1463   2.433   1_455  S
Zr1453     O1464   2.396   1_455  S
O1454      H1510   0.991       .  S
O1454      H1518   0.990       .  S
O1455      C1475   1.289       .  A
O1456      C1477   1.278       .  A
O1457     Zr1467   2.424   1_655  S
O1457      C1476   1.281       .  A
O1458     Zr1466   2.673       .  S
O1458      C1477   1.335       .  A
O1459      C1476   1.290       .  A
O1460     Zr1468   2.426       .  S
O1460      C1475   1.283       .  A
O1461     Zr1466   2.449       .  S
O1461     Zr1468   2.399       .  S
O1462     Zr1467   2.356       .  S
O1462     Zr1468   2.386       .  S
O1462      H1497   0.962       .  S
O1463     Zr1466   2.435   1_655  S
O1463     Zr1483   2.367       .  S
O1463      H1500   0.960       .  S
O1464     Zr1467   2.404   1_655  S
O1464     Zr1483   2.389       .  S
Zr1465     O1490   2.438   1_655  S
Zr1465     O1484   2.423       .  S
Zr1465     O1492   2.403       .  S
Zr1465     O1480   2.342       .  S
Zr1465     O1471   2.388   1_655  S
Zr1465     O1472   2.414   1_655  S
Zr1465     O1473   2.400       .  S
Zr1465     O1474   2.390       .  S
Zr1466     O1485   2.437   1_455  S
Zr1466     O1478   2.433       .  S
Zr1466     O1479   2.730       .  S
Zr1466     O1472   2.410       .  S
Zr1466     O1473   2.392   1_455  S
Zr1467     O1469   2.437   1_455  S
Zr1467     O1491   2.439       .  S
Zr1467     O1493   2.446   1_455  S
Zr1467     O1471   2.385       .  S
Zr1467     O1474   2.365   1_455  S
Zr1468     O1494   2.437       .  S
Zr1468     O1495   2.437       .  S
Zr1468     O1470   2.437       .  S
Zr1468     O1471   2.414       .  S
Zr1468     O1472   2.387       .  S
O1469      H1506   0.991       .  S
O1470      H1501   0.990       .  S
O1470      H1515   0.990       .  S
O1472      H1498   0.964       .  S
O1473     Zr1483   2.389       .  S
O1474     Zr1483   2.350       .  S
O1474      H1499   0.962       .  S
C1475      C4002   1.489       .  S
C1476      C3970   1.473       .  S
C1477      C3986   1.573       .  S
O1478      H1514   0.991       .  S
O1479      C1481   1.348       .  A
O1480      C1481   1.269   1_655  A
C1481      C4021   1.589       .  S
O1482     Zr1483   2.435       .  S
O1482      H1511   0.990       .  S
Zr1483     O1486   2.435       .  S
Zr1483     O1487   2.440       .  S
Zr1483     O1488   2.417       .  S
O1484      C1489   1.274       .  A
O1485      H1502   0.990       .  S
O1485      H1517   0.990       .  S
O1486      H1503   0.989       .  S
O1487      H1507   0.990       .  S
O1487      H1516   0.990       .  S
O1488      C1489   1.269       .  A
C1489      C5317   1.479       .  S
O1490      H1509   0.990   1_455  S
O1490      H1513   0.990       .  S
O1491      H1505   0.990       .  S
O1491      H1512   0.990       .  S
O1492      C1496   1.280       .  A
O1493      C1496   1.287       .  A
O1494      H1504   0.990       .  S
O1495      H1508   0.991       .  S
C1496      C5461   1.483       .  S
Zr1519     O1520   2.442       .  S
Zr1519     O1521   2.391       .  S
Zr1519     O1522   2.354       .  S
Zr1519     O1525   2.415       .  S
Zr1519     O1527   2.406       .  S
Zr1519     O1528   2.379       .  S
Zr1519     O1529   2.400       .  S
Zr1519     O1530   2.376       .  S
O1520      H1576   0.991       .  S
O1520      H1584   0.990       .  S
O1521      C1541   1.273       .  A
O1522      C1543   1.268       .  A
O1523     Zr1533   2.452       .  S
O1523      C1542   1.286       .  A
O1524     Zr1532   2.707       .  S
O1524      C1543   1.344       .  A
O1525      C1542   1.280       .  A
O1526     Zr1534   2.382       .  S
O1526      C1541   1.278       .  A
O1527     Zr1532   2.398       .  S
O1527     Zr1534   2.382       .  S
O1528     Zr1533   2.389       .  S
O1528     Zr1534   2.345       .  S
O1528      H1563   0.964       .  S
O1529     Zr1532   2.418       .  S
O1529     Zr1549   2.374       .  S
O1529      H1566   0.963       .  S
O1530     Zr1533   2.402       .  S
O1530     Zr1549   2.414       .  S
Zr1531     O1556   2.450       .  S
Zr1531     O1550   2.448       .  S
Zr1531     O1558   2.440       .  S
Zr1531     O1546   2.395       .  S
Zr1531     O1537   2.390       .  S
Zr1531     O1538   2.419       .  S
Zr1531     O1539   2.402       .  S
Zr1531     O1540   2.373       .  S
Zr1532     O1551   2.434   1_455  S
Zr1532     O1544   2.436   1_455  S
Zr1532     O1545   2.687   1_455  S
Zr1532     O1538   2.418       .  S
Zr1532     O1539   2.442       .  S
Zr1533     O1535   2.437       .  S
Zr1533     O1557   2.437       .  S
Zr1533     O1559   2.458       .  S
Zr1533     O1537   2.396       .  S
Zr1533     O1540   2.380       .  S
Zr1534     O1560   2.435       .  S
Zr1534     O1561   2.435       .  S
Zr1534     O1536   2.440       .  S
Zr1534     O1537   2.381       .  S
Zr1534     O1538   2.344       .  S
O1535      H1572   0.990       .  S
O1536      H1567   0.990   1_455  S
O1536      H1581   0.989   1_455  S
O1538      H1564   0.961       .  S
O1539     Zr1549   2.399       .  S
O1540     Zr1549   2.396       .  S
O1540      H1565   0.964       .  S
C1541      C3954   1.440       .  S
C1542      C3941   1.478       .  S
C1543      C3989   1.566       .  S
O1544      H1580   0.990       .  S
O1545      C1547   1.338   1_655  A
O1546      C1547   1.274       .  A
C1547      C4037   1.573   1_455  S
O1548     Zr1549   2.441       .  S
O1548      H1577   0.990       .  S
Zr1549     O1552   2.438       .  S
Zr1549     O1553   2.441       .  S
Zr1549     O1554   2.393       .  S
O1550      C1555   1.285       .  A
O1551      H1568   0.990       .  S
O1551      H1583   0.990       .  S
O1552      H1569   0.989       .  S
O1553      H1573   0.990       .  S
O1553      H1582   0.990       .  S
O1554      C1555   1.274       .  A
C1555      C4146   1.467       .  S
O1556      H1575   0.990       .  S
O1556      H1579   0.992       .  S
O1557      H1571   0.990       .  S
O1557      H1578   0.990       .  S
O1558      C1562   1.283       .  A
O1559      C1562   1.287       .  A
O1560      H1570   0.990       .  S
O1561      H1574   0.991       .  S
C1562      C4242   1.487       .  S
Zr1585     O1586   2.436       .  S
Zr1585     O1587   2.379       .  S
Zr1585     O1588   2.337       .  S
Zr1585     O1591   2.446       .  S
Zr1585     O1593   2.405       .  S
Zr1585     O1594   2.362       .  S
Zr1585     O1595   2.420       .  S
Zr1585     O1596   2.369       .  S
O1586      H1642   0.990       .  S
O1586      H1650   0.990       .  S
O1587      C1607   1.272       .  A
O1588      C1609   1.267       .  A
O1589     Zr1599   2.431       .  S
O1589      C1608   1.282       .  A
O1590     Zr1598   2.719       .  S
O1590      C1609   1.347       .  A
O1591      C1608   1.286       .  A
O1592     Zr1600   2.432       .  S
O1592      C1607   1.285       .  A
O1593     Zr1598   2.390       .  S
O1593     Zr1600   2.363       .  S
O1594     Zr1599   2.371       .  S
O1594     Zr1600   2.336       .  S
O1594      H1629   0.959       .  S
O1595     Zr1598   2.429       .  S
O1595     Zr1615   2.389       .  S
O1595      H1632   0.964       .  S
O1596     Zr1599   2.379       .  S
O1596     Zr1615   2.412       .  S
Zr1597     O1622   2.446       .  S
Zr1597     O1616   2.440       .  S
Zr1597     O1624   2.442       .  S
Zr1597     O1612   2.383       .  S
Zr1597     O1603   2.393       .  S
Zr1597     O1604   2.430       .  S
Zr1597     O1605   2.403       .  S
Zr1597     O1606   2.378       .  S
Zr1598     O1617   2.435       .  S
Zr1598     O1610   2.434       .  S
Zr1598     O1611   2.717       .  S
Zr1598     O1604   2.416       .  S
Zr1598     O1605   2.432       .  S
Zr1599     O1601   2.434       .  S
Zr1599     O1623   2.439       .  S
Zr1599     O1625   2.384       .  S
Zr1599     O1603   2.403       .  S
Zr1599     O1606   2.384       .  S
Zr1600     O1626   2.437       .  S
Zr1600     O1627   2.438       .  S
Zr1600     O1602   2.444       .  S
Zr1600     O1603   2.403       .  S
Zr1600     O1604   2.361       .  S
O1601      H1638   0.990       .  S
O1602      H1633   0.990       .  S
O1602      H1647   0.989       .  S
O1604      H1630   0.961       .  S
O1605     Zr1615   2.395       .  S
O1606     Zr1615   2.387       .  S
O1606      H1631   0.965       .  S
C1607      C4901   1.445       .  S
C1608      C4869   1.470       .  S
C1609      C3922   1.569       .  S
O1610      H1646   0.990       .  S
O1611      C1613   1.345       .  A
O1612      C1613   1.270       .  A
C1613      C3906   1.587       .  S
O1614     Zr1615   2.441       .  S
O1614      H1643   0.990       .  S
Zr1615     O1618   2.435       .  S
Zr1615     O1619   2.437       .  S
Zr1615     O1620   2.419       .  S
O1616      C1621   1.282       .  A
O1617      H1634   0.990       .  S
O1617      H1649   0.990       .  S
O1618      H1635   0.990       .  S
O1619      H1639   0.990       .  S
O1619      H1648   0.990       .  S
O1620      C1621   1.279       .  A
C1621      C4261   1.480       .  S
O1622      H1641   0.988       .  S
O1622      H1645   0.989       .  S
O1623      H1637   0.990       .  S
O1623      H1644   0.990       .  S
O1624      C1628   1.282       .  A
O1625      C1628   1.275       .  A
O1626      H1636   0.989       .  S
O1627      H1640   0.989       .  S
C1628      C4101   1.479       .  S
Zr1651     O1652   2.450       .  S
Zr1651     O1653   2.445       .  S
Zr1651     O1654   2.425       .  S
Zr1651     O1657   2.449       .  S
Zr1651     O1659   2.407       .  S
Zr1651     O1660   2.380       .  S
Zr1651     O1661   2.427       .  S
Zr1651     O1662   2.401       .  S
O1652      H1708   0.989       .  S
O1652      H1716   0.989       .  S
O1653      C1673   1.282       .  A
O1654      C1675   1.280       .  A
O1655     Zr1665   2.406       .  S
O1655      C1674   1.277       .  A
O1656     Zr1664   2.680       .  S
O1656      C1675   1.337       .  A
O1657      C1674   1.287       .  A
O1658     Zr1666   2.408       .  S
O1658      C1673   1.278       .  A
O1659     Zr1664   2.438       .  S
O1659     Zr1666   2.404       .  S
O1660     Zr1665   2.372       .  S
O1660     Zr1666   2.367       .  S
O1660      H1695   0.965       .  S
O1661     Zr1664   2.427       .  S
O1661     Zr1681   2.373       .  S
O1661      H1698   0.960       .  S
O1662     Zr1665   2.398       .  S
O1662     Zr1681   2.376       .  S
Zr1663     O1688   2.450       .  S
Zr1663     O1682   2.454       .  S
Zr1663     O1690   2.427       .  S
Zr1663     O1678   2.337       .  S
Zr1663     O1669   2.397       .  S
Zr1663     O1670   2.438       .  S
Zr1663     O1672   2.378       .  S
Zr1663     O1671   2.273       .  S
Zr1664     O1683   2.435       .  S
Zr1664     O1676   2.435       .  S
Zr1664     O1677   2.740       .  S
Zr1664     O1670   2.397       .  S
Zr1664     O1671   2.294       .  S
Zr1665     O1667   2.434       .  S
Zr1665     O1689   2.436       .  S
Zr1665     O1691   2.394       .  S
Zr1665     O1669   2.396       .  S
Zr1665     O1672   2.392       .  S
Zr1666     O1692   2.438       .  S
Zr1666     O1693   2.435       .  S
Zr1666     O1668   2.436       .  S
Zr1666     O1669   2.409       .  S
Zr1666     O1670   2.378       .  S
O1667      H1704   0.989       .  S
O1668      H1699   0.990       .  S
O1668      H1713   0.990       .  S
O1670      H1696   0.964       .  S
O1671     Zr1681   2.297       .  S
O1672     Zr1681   2.360       .  S
O1672      H1697   0.966       .  S
C1673      C4853   1.471       .  S
C1674      C4949   1.467       .  S
C1675      C3925   1.581       .  S
O1676      H1712   0.990       .  S
O1677      C1679   1.349       .  A
O1678      C1679   1.264       .  A
C1679      C3890   1.578       .  S
O1680     Zr1681   2.439       .  S
O1680      H1709   0.990       .  S
Zr1681     O1684   2.438       .  S
Zr1681     O1685   2.438       .  S
Zr1681     O1686   2.397       .  S
O1682      C1687   1.280       .  A
O1683      H1700   0.990       .  S
O1683      H1715   0.990       .  S
O1684      H1701   0.990       .  S
O1685      H1705   0.990       .  S
O1685      H1714   0.990       .  S
O1686      C1687   1.269       .  A
C1687      C5218   1.465       .  S
O1688      H1707   0.990       .  S
O1688      H1711   0.991       .  S
O1689      H1703   0.990       .  S
O1689      H1710   0.990       .  S
O1690      C1694   1.281       .  A
O1691      C1694   1.278       .  A
O1692      H1702   0.990       .  S
O1693      H1706   0.990       .  S
C1694      C5205   1.475       .  S
Zr1717     O1718   2.451       .  S
Zr1717     O1719   2.441       .  S
Zr1717     O1720   2.380       .  S
Zr1717     O1723   2.413       .  S
Zr1717     O1725   2.400       .  S
Zr1717     O1726   2.368       .  S
Zr1717     O1727   2.428       .  S
Zr1717     O1728   2.391       .  S
O1718      H1774   0.991       .  S
O1718      H1782   0.990       .  S
O1719      C1739   1.282       .  A
O1720      C1741   1.269       .  A
O1721     Zr1731   2.408       .  S
O1721      C1740   1.277       .  A
O1722     Zr1730   2.708       .  S
O1722      C1741   1.341       .  A
O1723      C1740   1.277       .  A
O1724     Zr1732   2.380       .  S
O1724      C1739   1.274       .  A
O1725     Zr1730   2.431       .  S
O1725     Zr1732   2.396       .  S
O1726     Zr1731   2.379       .  S
O1726     Zr1732   2.381       .  S
O1726      H1761   0.964       .  S
O1727     Zr1730   2.417       .  S
O1727     Zr1747   2.369       .  S
O1727      H1764   0.962       .  S
O1728     Zr1731   2.395       .  S
O1728     Zr1747   2.394       .  S
Zr1729     O1754   2.440       .  S
Zr1729     O1748   2.404       .  S
Zr1729     O1756   2.417       .  S
Zr1729     O1744   2.326       .  S
Zr1729     O1735   2.365       .  S
Zr1729     O1736   2.415       .  S
Zr1729     O1737   2.400       .  S
Zr1729     O1738   2.369       .  S
Zr1730     O1749   2.435       .  S
Zr1730     O1742   2.434       .  S
Zr1730     O1743   2.713       .  S
Zr1730     O1736   2.426       .  S
Zr1730     O1737   2.394       .  S
Zr1731     O1733   2.434       .  S
Zr1731     O1755   2.436       .  S
Zr1731     O1757   2.416       .  S
Zr1731     O1735   2.387       .  S
Zr1731     O1738   2.386       .  S
Zr1732     O1758   2.435       .  S
Zr1732     O1759   2.436       .  S
Zr1732     O1734   2.437       .  S
Zr1732     O1735   2.396       .  S
Zr1732     O1736   2.368       .  S
O1733      H1770   0.990       .  S
O1734      H1765   0.990       .  S
O1734      H1779   0.990       .  S
O1736      H1762   0.964       .  S
O1737     Zr1747   2.365       .  S
O1738     Zr1747   2.361       .  S
O1738      H1763   0.965       .  S
C1739      C5173   1.473       .  S
C1740      C5282   1.460       .  S
C1741      C3893   1.588       .  S
O1742      H1778   0.990       .  S
O1743      C1745   1.346       .  A
O1744      C1745   1.263       .  A
C1745      C3858   1.559       .  S
O1746     Zr1747   2.435       .  S
O1746      H1775   0.989       .  S
Zr1747     O1750   2.434       .  S
Zr1747     O1751   2.437       .  S
Zr1747     O1752   2.418       .  S
O1748      C1753   1.276       .  A
O1749      H1766   0.990       .  S
O1749      H1781   0.989       .  S
O1750      H1767   0.990       .  S
O1751      H1771   0.990       .  S
O1751      H1780   0.990       .  S
O1752      C1753   1.281       .  A
C1753      C3874   1.451       .  S
O1754      H1773   0.988       .  S
O1754      H1777   0.990       .  S
O1755      H1769   0.990       .  S
O1755      H1776   0.990       .  S
O1756      C1760   1.278       .  A
O1757      C1760   1.283       .  A
O1758      H1768   0.990       .  S
O1759      H1772   0.989       .  S
C1760      C3845   1.484       .  S
Zr1783     O1784   2.440   1_545  S
Zr1783     O1785   2.446   1_545  S
Zr1783     O1786   2.322   1_545  S
Zr1783     O1789   2.415   1_545  S
Zr1783     O1791   2.384       .  S
Zr1783     O1792   2.376       .  S
Zr1783     O1793   2.420       .  S
Zr1783     O1794   2.388       .  S
O1784      H1840   0.990       .  S
O1784      H1848   0.990       .  S
O1785      C1805   1.284       .  A
O1786      C1807   1.263       .  A
O1787     Zr1797   2.418       .  S
O1787      C1806   1.279   1_545  A
O1788     Zr1796   2.747   1_565  S
O1788      C1807   1.354       .  A
O1789      C1806   1.279       .  A
O1790     Zr1798   2.420       .  S
O1790      C1805   1.282   1_545  A
O1791     Zr1796   2.383       .  S
O1791     Zr1798   2.370       .  S
O1792     Zr1797   2.379       .  S
O1792     Zr1798   2.356       .  S
O1792      H1827   0.964       .  S
O1793     Zr1796   2.409       .  S
O1793     Zr1813   2.389       .  S
O1793      H1830   0.964       .  S
O1794     Zr1797   2.386       .  S
O1794     Zr1813   2.415       .  S
Zr1795     O1820   2.449       .  S
Zr1795     O1814   2.475       .  S
Zr1795     O1822   2.432       .  S
Zr1795     O1810   2.417       .  S
Zr1795     O1801   2.406       .  S
Zr1795     O1802   2.435       .  S
Zr1795     O1803   2.402       .  S
Zr1795     O1804   2.376       .  S
Zr1796     O1815   2.432       .  S
Zr1796     O1808   2.435       .  S
Zr1796     O1809   2.691       .  S
Zr1796     O1802   2.429       .  S
Zr1796     O1803   2.434       .  S
Zr1797     O1799   2.435       .  S
Zr1797     O1821   2.439       .  S
Zr1797     O1823   2.399       .  S
Zr1797     O1801   2.394       .  S
Zr1797     O1804   2.364       .  S
Zr1798     O1824   2.443       .  S
Zr1798     O1825   2.434       .  S
Zr1798     O1800   2.439       .  S
Zr1798     O1801   2.401       .  S
Zr1798     O1802   2.371       .  S
O1799      H1836   0.990       .  S
O1800      H1831   0.990       .  S
O1800      H1845   0.990       .  S
O1802      H1828   0.957       .  S
O1803     Zr1813   2.387       .  S
O1804     Zr1813   2.381       .  S
O1804      H1829   0.963       .  S
C1805      C4085   1.466       .  S
C1806      C4306   1.479       .  S
C1807      C3909   1.584       .  S
O1808      H1844   0.990       .  S
O1809      C1811   1.339       .  A
O1810      C1811   1.279       .  A
C1811      C3861   1.574       .  S
O1812     Zr1813   2.440       .  S
O1812      H1841   0.990       .  S
Zr1813     O1816   2.436       .  S
Zr1813     O1817   2.436       .  S
Zr1813     O1818   2.426       .  S
O1814      C1819   1.288       .  A
O1815      H1832   0.990       .  S
O1815      H1847   0.990       .  S
O1816      H1833   0.990       .  S
O1817      H1837   0.990       .  S
O1817      H1846   0.990       .  S
O1818      C1819   1.281       .  A
C1819      C3829   1.481       .  S
O1820      H1839   0.990       .  S
O1820      H1843   0.992       .  S
O1821      H1835   0.990       .  S
O1821      H1842   0.989       .  S
O1822      C1826   1.282       .  A
O1823      C1826   1.279       .  A
O1824      H1834   0.990       .  S
O1825      H1838   0.990       .  S
C1826      C3810   1.485       .  S
Zr1849     O1850   2.437       .  S
Zr1849     O1851   2.412       .  S
Zr1849     O1852   2.467       .  S
Zr1849     O1855   2.452       .  S
Zr1849     O1857   2.369       .  S
Zr1849     O1858   2.404       .  S
Zr1849     O1859   2.412       .  S
Zr1849     O1860   2.375       .  S
O1850      H1906   0.989       .  S
O1850      H1914   0.990       .  S
O1851      C1871   1.278       .  A
O1852      C1873   1.290       .  A
O1853     Zr1863   2.649       .  S
O1853      C1872   1.330       .  A
O1854     Zr1862   2.440       .  S
O1854      C1873   1.284       .  A
O1855      C1872   1.290       .  A
O1856     Zr1864   2.423       .  S
O1856      C1871   1.279       .  A
O1857     Zr1862   2.396       .  S
O1857     Zr1864   2.343       .  S
O1858     Zr1863   2.416       .  S
O1858     Zr1864   2.391       .  S
O1858      H1893   0.965       .  S
O1859     Zr1862   2.405       .  S
O1859     Zr1879   2.425   1_556  S
O1859      H1896   0.966       .  S
O1860     Zr1863   2.377       .  S
O1860     Zr1879   2.356   1_556  S
Zr1861     O1886   2.447       .  S
Zr1861     O1880   2.424       .  S
Zr1861     O1888   2.392       .  S
Zr1861     O1876   2.380       .  S
Zr1861     O1868   2.410   1_554  S
Zr1861     O1869   2.369       .  S
Zr1861     O1870   2.384       .  S
Zr1861     O1867   2.291   1_554  S
Zr1862     O1881   2.434       .  S
Zr1862     O1874   2.435       .  S
Zr1862     O1875   2.447       .  S
Zr1862     O1868   2.414       .  S
Zr1862     O1869   2.382   1_556  S
Zr1863     O1865   2.434   1_556  S
Zr1863     O1887   2.437       .  S
Zr1863     O1889   2.691       .  S
Zr1863     O1870   2.408   1_556  S
Zr1863     O1867   2.259       .  S
Zr1864     O1890   2.437       .  S
Zr1864     O1891   2.445       .  S
Zr1864     O1866   2.453       .  S
Zr1864     O1868   2.421       .  S
Zr1864     O1867   2.288       .  S
O1865      H1902   0.990       .  S
O1866      H1897   0.989       .  S
O1866      H1911   0.990       .  S
O1868      H1894   0.965       .  S
O1869     Zr1879   2.368       .  S
O1870     Zr1879   2.416       .  S
O1870      H1895   0.966       .  S
C1871      C3938   1.480       .  S
C1872      C3762   1.566       .  S
C1873      C4005   1.489       .  S
O1874      H1910   0.990       .  S
O1875      C1877   1.284   1_556  A
O1876      C1877   1.267       .  A
C1877      C3749   1.454       .  S
O1878     Zr1879   2.435       .  S
O1878      H1907   0.990       .  S
Zr1879     O1882   2.436       .  S
Zr1879     O1883   2.439       .  S
Zr1879     O1884   2.402       .  S
O1880      C1885   1.283       .  A
O1881      H1898   0.990   1_556  S
O1881      H1913   0.990       .  S
O1882      H1899   0.989       .  S
O1883      H1903   0.990       .  S
O1883      H1912   0.990       .  S
O1884      C1885   1.277       .  A
C1885      C3797   1.470       .  S
O1886      H1905   0.990       .  S
O1886      H1909   0.989       .  S
O1887      H1901   0.990       .  S
O1887      H1908   0.990       .  S
O1888      C1892   1.269       .  A
O1889      C1892   1.333   1_556  A
O1890      H1900   0.991       .  S
O1891      H1904   0.989       .  S
C1892      C3778   1.587       .  S
Zr1915     O1916   2.429       .  S
Zr1915     O1917   2.388       .  S
Zr1915     O1918   2.366       .  S
Zr1915     O1921   2.356       .  S
Zr1915     O1923   2.353       .  S
Zr1915     O1924   2.387       .  S
Zr1915     O1925   2.389       .  S
Zr1915     O1926   2.393       .  S
O1916      H1972   0.989       .  S
O1916      H1980   0.989       .  S
O1917      C1937   1.277       .  A
O1918      C1939   1.270       .  A
O1919     Zr1929   2.666   1_554  S
O1919      C1938   1.326       .  A
O1920     Zr1928   2.445       .  S
O1920      C1939   1.287       .  A
O1921      C1938   1.260   1_556  A
O1922     Zr1930   2.453       .  S
O1922      C1937   1.286       .  A
O1923     Zr1928   2.364       .  S
O1923     Zr1930   2.347       .  S
O1924     Zr1929   2.405       .  S
O1924     Zr1930   2.388       .  S
O1924      H1959   0.966       .  S
O1925     Zr1928   2.390       .  S
O1925     Zr1945   2.409       .  S
O1925      H1962   0.966       .  S
O1926     Zr1929   2.381       .  S
O1926     Zr1945   2.368       .  S
Zr1927     O1952   2.441       .  S
Zr1927     O1946   2.451       .  S
Zr1927     O1954   2.435       .  S
Zr1927     O1942   2.457       .  S
Zr1927     O1933   2.407       .  S
Zr1927     O1934   2.415       .  S
Zr1927     O1935   2.363       .  S
Zr1927     O1936   2.408       .  S
Zr1928     O1947   2.441       .  S
Zr1928     O1940   2.433       .  S
Zr1928     O1941   2.407       .  S
Zr1928     O1934   2.409       .  S
Zr1928     O1935   2.378       .  S
Zr1929     O1931   2.435   1_556  S
Zr1929     O1953   2.438   1_556  S
Zr1929     O1955   2.632       .  S
Zr1929     O1933   2.408       .  S
Zr1929     O1936   2.422       .  S
Zr1930     O1956   2.434       .  S
Zr1930     O1957   2.432       .  S
Zr1930     O1932   2.439       .  S
Zr1930     O1933   2.395       .  S
Zr1930     O1934   2.422       .  S
O1931      H1968   0.990       .  S
O1932      H1963   0.990       .  S
O1932      H1977   0.990       .  S
O1934      H1960   0.966       .  S
O1935     Zr1945   2.355       .  S
O1936     Zr1945   2.403       .  S
O1936      H1961   0.966       .  S
C1937      C3973   1.484       .  S
C1938      C3765   1.559       .  S
C1939      C3957   1.451       .  S
O1940      H1976   0.990       .  S
O1941      C1943   1.278       .  A
O1942      C1943   1.288       .  A
C1943      C4805   1.475       .  S
O1944     Zr1945   2.436       .  S
O1944      H1973   0.989   1_556  S
Zr1945     O1948   2.434       .  S
Zr1945     O1949   2.442   1_556  S
Zr1945     O1950   2.393       .  S
O1946      C1951   1.284       .  A
O1947      H1964   0.989       .  S
O1947      H1979   0.990       .  S
O1948      H1965   0.990       .  S
O1949      H1969   0.990       .  S
O1949      H1978   0.990       .  S
O1950      C1951   1.273       .  A
C1951      C4597   1.482       .  S
O1952      H1971   0.990       .  S
O1952      H1975   0.990       .  S
O1953      H1967   0.990       .  S
O1953      H1974   0.990       .  S
O1954      C1958   1.284       .  A
O1955      C1958   1.326       .  A
O1956      H1966   0.990       .  S
O1957      H1970   0.990       .  S
C1958      C3730   1.565       .  S
Zr1981     O1982   2.443       .  S
Zr1981     O1983   2.449       .  S
Zr1981     O1984   2.422       .  S
Zr1981     O1987   2.451       .  S
Zr1981     O1989   2.378       .  S
Zr1981     O1990   2.394       .  S
Zr1981     O1991   2.421       .  S
Zr1981     O1992   2.374   1_554  S
O1982      H2038   0.991       .  S
O1982      H2046   0.990       .  S
O1983      C2003   1.285       .  A
O1984      C2005   1.279       .  A
O1985     Zr1995   2.645       .  S
O1985      C2004   1.330   1_556  A
O1986     Zr1994   2.461       .  S
O1986      C2005   1.288       .  A
O1987      C2004   1.287       .  A
O1988     Zr1996   2.382       .  S
O1988      C2003   1.267       .  A
O1989     Zr1994   2.383       .  S
O1989     Zr1996   2.367       .  S
O1990     Zr1995   2.430   1_554  S
O1990     Zr1996   2.411       .  S
O1990      H2025   0.966       .  S
O1991     Zr1994   2.392       .  S
O1991     Zr2011   2.436   1_554  S
O1991      H2028   0.965       .  S
O1992     Zr1995   2.371       .  S
O1992     Zr2011   2.366       .  S
Zr1993     O2018   2.444       .  S
Zr1993     O2012   2.403       .  S
Zr1993     O2020   2.430       .  S
Zr1993     O2008   2.377       .  S
Zr1993     O1999   2.366   1_556  S
Zr1993     O2000   2.413   1_556  S
Zr1993     O2001   2.389       .  S
Zr1993     O2002   2.388       .  S
Zr1994     O2013   2.437   1_554  S
Zr1994     O2006   2.434       .  S
Zr1994     O2007   2.434   1_554  S
Zr1994     O2000   2.405       .  S
Zr1994     O2001   2.380   1_554  S
Zr1995     O1997   2.435       .  S
Zr1995     O2019   2.434   1_556  S
Zr1995     O2021   2.661       .  S
Zr1995     O1999   2.377   1_556  S
Zr1995     O2002   2.424       .  S
Zr1996     O2022   2.444       .  S
Zr1996     O2023   2.449       .  S
Zr1996     O1998   2.456       .  S
Zr1996     O1999   2.354       .  S
Zr1996     O2000   2.400       .  S
O1997      H2034   0.990       .  S
O1998      H2029   0.991       .  S
O1998      H2043   0.990       .  S
O2000      H2026   0.960       .  S
O2001     Zr2011   2.359       .  S
O2002     Zr2011   2.417       .  S
O2002      H2027   0.966       .  S
C2003      C3842   1.471       .  S
C2004      C3714   1.558   1_554  S
C2005      C3826   1.490       .  S
O2006      H2042   0.990       .  S
O2007      C2009   1.287       .  A
O2008      C2009   1.272       .  A
C2009      C4613   1.450       .  S
O2010     Zr2011   2.439       .  S
O2010      H2039   0.990       .  S
Zr2011     O2014   2.439       .  S
Zr2011     O2015   2.440       .  S
Zr2011     O2016   2.438       .  S
O2012      C2017   1.271       .  A
O2013      H2030   0.990       .  S
O2013      H2045   0.990   1_556  S
O2014      H2031   0.990       .  S
O2015      H2035   0.990       .  S
O2015      H2044   0.990       .  S
O2016      C2017   1.276       .  A
C2017      C4757   1.493       .  S
O2018      H2037   0.990       .  S
O2018      H2041   0.991       .  S
O2019      H2033   0.990       .  S
O2019      H2040   0.990       .  S
O2020      C2024   1.273       .  A
O2021      C2024   1.328       .  A
O2022      H2032   0.989       .  S
O2023      H2036   0.989       .  S
C2024      C3733   1.567       .  S
Zr2047     O2048   2.444       .  S
Zr2047     O2049   2.468       .  S
Zr2047     O2050   2.409       .  S
Zr2047     O2053   2.448       .  S
Zr2047     O2055   2.371       .  S
Zr2047     O2056   2.396       .  S
Zr2047     O2057   2.424       .  S
Zr2047     O2058   2.382       .  S
O2048      H2104   0.989       .  S
O2048      H2112   0.991       .  S
O2049      C2069   1.290       .  A
O2050      C2071   1.276       .  A
O2051     Zr2061   2.686       .  S
O2051      C2070   1.336   1_556  A
O2052     Zr2060   2.443       .  S
O2052      C2071   1.282       .  A
O2053      C2070   1.280       .  A
O2054     Zr2062   2.376       .  S
O2054      C2069   1.273       .  A
O2055     Zr2060   2.382       .  S
O2055     Zr2062   2.361       .  S
O2056     Zr2061   2.423   1_554  S
O2056     Zr2062   2.429       .  S
O2056      H2091   0.966       .  S
O2057     Zr2060   2.391       .  S
O2057     Zr2077   2.428       .  S
O2057      H2094   0.964       .  S
O2058     Zr2061   2.358   1_554  S
O2058     Zr2077   2.386       .  S
Zr2059     O2084   2.444       .  S
Zr2059     O2078   2.397       .  S
Zr2059     O2086   2.411       .  S
Zr2059     O2074   2.415       .  S
Zr2059     O2065   2.353       .  S
Zr2059     O2066   2.419       .  S
Zr2059     O2067   2.384       .  S
Zr2059     O2068   2.402       .  S
Zr2060     O2079   2.434       .  S
Zr2060     O2072   2.435       .  S
Zr2060     O2073   2.416       .  S
Zr2060     O2066   2.402       .  S
Zr2060     O2067   2.391       .  S
Zr2061     O2063   2.435       .  S
Zr2061     O2085   2.435       .  S
Zr2061     O2087   2.681       .  S
Zr2061     O2065   2.353   1_556  S
Zr2061     O2068   2.420   1_556  S
Zr2062     O2088   2.435       .  S
Zr2062     O2089   2.438       .  S
Zr2062     O2064   2.443       .  S
Zr2062     O2065   2.348       .  S
Zr2062     O2066   2.398       .  S
O2063      H2100   0.990       .  S
O2064      H2095   0.990       .  S
O2064      H2109   0.989       .  S
O2066      H2092   0.966       .  S
O2067     Zr2077   2.359       .  S
O2068     Zr2077   2.413       .  S
O2068      H2093   0.966       .  S
C2069      C3698   1.486       .  S
C2070      C3781   1.580       .  S
C2071      C3682   1.498       .  S
O2072      H2108   0.990       .  S
O2073      C2075   1.284       .  A
O2074      C2075   1.279       .  A
C2075      C3877   1.483       .  S
O2076     Zr2077   2.438       .  S
O2076      H2105   0.991       .  S
Zr2077     O2080   2.444       .  S
Zr2077     O2081   2.445       .  S
Zr2077     O2082   2.429       .  S
O2078      C2083   1.265       .  A
O2079      H2096   0.990       .  S
O2079      H2111   0.990       .  S
O2080      H2097   0.990       .  S
O2081      H2101   0.991       .  S
O2081      H2110   0.988       .  S
O2082      C2083   1.275       .  A
C2083      C3813   1.465       .  S
O2084      H2103   0.989       .  S
O2084      H2107   0.989       .  S
O2085      H2099   0.990       .  S
O2085      H2106   0.990       .  S
O2086      C2090   1.278       .  A
O2087      C2090   1.337   1_556  A
O2088      H2098   0.990   1_554  S
O2089      H2102   0.990       .  S
C2090      C3717   1.556   1_554  S
Zr2113     O2114   2.438       .  S
Zr2113     O2115   2.440       .  S
Zr2113     O2116   2.449       .  S
Zr2113     O2119   2.427       .  S
Zr2113     O2121   2.374       .  S
Zr2113     O2122   2.409       .  S
Zr2113     O2123   2.413       .  S
Zr2113     O2124   2.383       .  S
O2114      H2170   0.988       .  S
O2114      H2178   0.990       .  S
O2115      C2135   1.282       .  A
O2116      C2137   1.285       .  A
O2117     Zr2127   2.650       .  S
O2117      C2136   1.329       .  A
O2118     Zr2126   2.395       .  S
O2118      C2137   1.278       .  A
O2119      C2136   1.282       .  A
O2120     Zr2128   2.399       .  S
O2120      C2135   1.271       .  A
O2121     Zr2126   2.361       .  S
O2121     Zr2128   2.364       .  S
O2122     Zr2127   2.427       .  S
O2122     Zr2128   2.408       .  S
O2122      H2157   0.966       .  S
O2123     Zr2126   2.399       .  S
O2123     Zr2143   2.431       .  S
O2123      H2160   0.966       .  S
O2124     Zr2127   2.364       .  S
O2124     Zr2143   2.361       .  S
Zr2125     O2150   2.432       .  S
Zr2125     O2144   2.437       .  S
Zr2125     O2152   2.445       .  S
Zr2125     O2140   2.431       .  S
Zr2125     O2131   2.372       .  S
Zr2125     O2132   2.417       .  S
Zr2125     O2133   2.379       .  S
Zr2125     O2134   2.417       .  S
Zr2126     O2145   2.439       .  S
Zr2126     O2138   2.435       .  S
Zr2126     O2139   2.413       .  S
Zr2126     O2132   2.399       .  S
Zr2126     O2133   2.344       .  S
Zr2127     O2129   2.435       .  S
Zr2127     O2151   2.435       .  S
Zr2127     O2153   2.656       .  S
Zr2127     O2131   2.359       .  S
Zr2127     O2134   2.420       .  S
Zr2128     O2154   2.437       .  S
Zr2128     O2155   2.440       .  S
Zr2128     O2130   2.443       .  S
Zr2128     O2131   2.346       .  S
Zr2128     O2132   2.398       .  S
O2129      H2166   0.990       .  S
O2130      H2161   0.989       .  S
O2130      H2175   0.990       .  S
O2132      H2158   0.964       .  S
O2133     Zr2143   2.388       .  S
O2134     Zr2143   2.430       .  S
O2134      H2159   0.966       .  S
C2135      C4741   1.456       .  S
C2136      C3634   1.562       .  S
C2137      C4725   1.486       .  S
O2138      H2174   0.991       .  S
O2139      C2141   1.282       .  A
O2140      C2141   1.280       .  A
C2141      C3618   1.489       .  S
O2142     Zr2143   2.430       .  S
O2142      H2171   0.990       .  S
Zr2143     O2146   2.439       .  S
Zr2143     O2147   2.438       .  S
Zr2143     O2148   2.413       .  S
O2144      C2149   1.277       .  A
O2145      H2162   0.990       .  S
O2145      H2177   0.988       .  S
O2146      H2163   0.990       .  S
O2147      H2167   0.990       .  S
O2147      H2176   0.990       .  S
O2148      C2149   1.269       .  A
C2149      C3669   1.479       .  S
O2150      H2169   0.987       .  S
O2150      H2173   0.989       .  S
O2151      H2165   0.990       .  S
O2151      H2172   0.990       .  S
O2152      C2156   1.285       .  A
O2153      C2156   1.332       .  A
O2154      H2164   0.989       .  S
O2155      H2168   0.990       .  S
C2156      C3650   1.561       .  S
Zr2179     O2180   2.447       .  S
Zr2179     O2181   2.401       .  S
Zr2179     O2182   2.408       .  S
Zr2179     O2185   2.411       .  S
Zr2179     O2187   2.375       .  S
Zr2179     O2188   2.398       .  S
Zr2179     O2189   2.407       .  S
Zr2179     O2190   2.367       .  S
O2180      H2236   0.991       .  S
O2180      H2244   0.991       .  S
O2181      C2201   1.277       .  A
O2182      C2203   1.275       .  A
O2183     Zr2193   2.673       .  S
O2183      C2202   1.331       .  A
O2184     Zr2192   2.433       .  S
O2184      C2203   1.283       .  A
O2185      C2202   1.270       .  A
O2186     Zr2194   2.399       .  S
O2186      C2201   1.273       .  A
O2187     Zr2192   2.399       .  S
O2187     Zr2194   2.380       .  S
O2188     Zr2193   2.427       .  S
O2188     Zr2194   2.399       .  S
O2188      H2223   0.966       .  S
O2189     Zr2192   2.405       .  S
O2189     Zr2209   2.418       .  S
O2189      H2226   0.966       .  S
O2190     Zr2193   2.355       .  S
O2190     Zr2209   2.343       .  S
Zr2191     O2216   2.446       .  S
Zr2191     O2210   2.430       .  S
Zr2191     O2218   2.440       .  S
Zr2191     O2206   2.420       .  S
Zr2191     O2197   2.371       .  S
Zr2191     O2198   2.415       .  S
Zr2191     O2199   2.372       .  S
Zr2191     O2200   2.398       .  S
Zr2192     O2211   2.439       .  S
Zr2192     O2204   2.435       .  S
Zr2192     O2205   2.422       .  S
Zr2192     O2198   2.411       .  S
Zr2192     O2199   2.400       .  S
Zr2193     O2195   2.436       .  S
Zr2193     O2217   2.436       .  S
Zr2193     O2219   2.675       .  S
Zr2193     O2197   2.371       .  S
Zr2193     O2200   2.419       .  S
Zr2194     O2220   2.436       .  S
Zr2194     O2221   2.440       .  S
Zr2194     O2196   2.445       .  S
Zr2194     O2197   2.354       .  S
Zr2194     O2198   2.427       .  S
O2195      H2232   0.990       .  S
O2196      H2227   0.989       .  S
O2196      H2241   0.990       .  S
O2198      H2224   0.965       .  S
O2199     Zr2209   2.344       .  S
O2200     Zr2209   2.414       .  S
O2200      H2225   0.966       .  S
C2201      C4693   1.469       .  S
C2202      C3637   1.560       .  S
C2203      C4821   1.476       .  S
O2204      H2240   0.990       .  S
O2205      C2207   1.278       .  A
O2206      C2207   1.280       .  A
C2207      C4498   1.461       .  S
O2208     Zr2209   2.435       .  S
O2208      H2237   0.991       .  S
Zr2209     O2212   2.437       .  S
Zr2209     O2213   2.441       .  S
Zr2209     O2214   2.388       .  S
O2210      C2215   1.282       .  A
O2211      H2228   0.990       .  S
O2211      H2243   0.990       .  S
O2212      H2229   0.990       .  S
O2213      H2233   0.989       .  S
O2213      H2242   0.988       .  S
O2214      C2215   1.272       .  A
C2215      C4386   1.464       .  S
O2216      H2235   0.990       .  S
O2216      H2239   0.990       .  S
O2217      H2231   0.990       .  S
O2217      H2238   0.990       .  S
O2218      C2222   1.283       .  A
O2219      C2222   1.335       .  A
O2220      H2230   0.990       .  S
O2221      H2234   0.990       .  S
C2222      C3602   1.572       .  S
Zr2245     O2246   2.442       .  S
Zr2245     O2247   2.418       .  S
Zr2245     O2248   2.437       .  S
Zr2245     O2251   2.415       .  S
Zr2245     O2253   2.377       .  S
Zr2245     O2254   2.423       .  S
Zr2245     O2255   2.414       .  S
Zr2245     O2256   2.381       .  S
O2246      H2302   0.990       .  S
O2246      H2310   0.990       .  S
O2247      C2267   1.269       .  A
O2248      C2269   1.282       .  A
O2249     Zr2259   2.672       .  S
O2249      C2268   1.335       .  A
O2250     Zr2258   2.430       .  S
O2250      C2269   1.285       .  A
O2251      C2268   1.277       .  A
O2252     Zr2260   2.401       .  S
O2252      C2267   1.266       .  A
O2253     Zr2258   2.357       .  S
O2253     Zr2260   2.385       .  S
O2254     Zr2259   2.401       .  S
O2254     Zr2260   2.438       .  S
O2254      H2289   0.968       .  S
O2255     Zr2258   2.398       .  S
O2255     Zr2275   2.398       .  S
O2255      H2292   0.965       .  S
O2256     Zr2259   2.375       .  S
O2256     Zr2275   2.366       .  S
Zr2257     O2282   2.441       .  S
Zr2257     O2276   2.416       .  S
Zr2257     O2284   2.410       .  S
Zr2257     O2272   2.424       .  S
Zr2257     O2263   2.380       .  S
Zr2257     O2264   2.417       .  S
Zr2257     O2265   2.364       .  S
Zr2257     O2266   2.401       .  S
Zr2258     O2277   2.438       .  S
Zr2258     O2270   2.437       .  S
Zr2258     O2271   2.425       .  S
Zr2258     O2264   2.404       .  S
Zr2258     O2265   2.374       .  S
Zr2259     O2261   2.436       .  S
Zr2259     O2283   2.435       .  S
Zr2259     O2285   2.679       .  S
Zr2259     O2263   2.359       .  S
Zr2259     O2266   2.408       .  S
Zr2260     O2286   2.439       .  S
Zr2260     O2287   2.435       .  S
Zr2260     O2262   2.437       .  S
Zr2260     O2263   2.362       .  S
Zr2260     O2264   2.434       .  S
O2261      H2298   0.990       .  S
O2262      H2293   0.990       .  S
O2262      H2307   0.990       .  S
O2264      H2290   0.966       .  S
O2265     Zr2275   2.352       .  S
O2266     Zr2275   2.409       .  S
O2266      H2291   0.965       .  S
C2267      C4469   1.460       .  S
C2268      C3605   1.564       .  S
C2269      C4437   1.501       .  S
O2270      H2306   0.990       .  S
O2271      C2273   1.280       .  A
O2272      C2273   1.280       .  A
C2273      C3554   1.462       .  S
O2274     Zr2275   2.431       .  S
O2274      H2303   0.990       .  S
Zr2275     O2278   2.435       .  S
Zr2275     O2279   2.426       .  S
Zr2275     O2280   2.409       .  S
O2276      C2281   1.283       .  A
O2277      H2294   0.990       .  S
O2277      H2309   0.989       .  S
O2278      H2295   0.990       .  S
O2279      H2299   0.990       .  S
O2279      H2308   0.989       .  S
O2280      C2281   1.276       .  A
C2281      C3586   1.481       .  S
O2282      H2301   0.990       .  S
O2282      H2305   0.991       .  S
O2283      H2297   0.990       .  S
O2283      H2304   0.990       .  S
O2284      C2288   1.276       .  A
O2285      C2288   1.336       .  A
O2286      H2296   0.991       .  S
O2287      H2300   0.990       .  S
C2288      C3570   1.566       .  S
Zr2311     O2312   2.440       .  S
Zr2311     O2313   2.390       .  S
Zr2311     O2314   2.424       .  S
Zr2311     O2317   2.392       .  S
Zr2311     O2319   2.353       .  S
Zr2311     O2320   2.401       .  S
Zr2311     O2321   2.398       .  S
Zr2311     O2322   2.379       .  S
O2312      H2368   0.991       .  S
O2312      H2376   0.990       .  S
O2313      C2333   1.279       .  A
O2314      C2335   1.283       .  A
O2315     Zr2325   2.674       .  S
O2315      C2334   1.337       .  A
O2316     Zr2324   2.432       .  S
O2316      C2335   1.286       .  A
O2317      C2334   1.276       .  A
O2318     Zr2326   2.452       .  S
O2318      C2333   1.286       .  A
O2319     Zr2324   2.383       .  S
O2319     Zr2326   2.344       .  S
O2320     Zr2325   2.396       .  S
O2320     Zr2326   2.399       .  S
O2320      H2355   0.965       .  S
O2321     Zr2324   2.404       .  S
O2321     Zr2341   2.410       .  S
O2321      H2358   0.966       .  S
O2322     Zr2325   2.384       .  S
O2322     Zr2341   2.365       .  S
Zr2323     O2348   2.439       .  S
Zr2323     O2342   2.418       .  S
Zr2323     O2350   2.385       .  S
Zr2323     O2338   2.393       .  S
Zr2323     O2329   2.393       .  S
Zr2323     O2330   2.406       .  S
Zr2323     O2331   2.359       .  S
Zr2323     O2332   2.394       .  S
Zr2324     O2343   2.436       .  S
Zr2324     O2336   2.435       .  S
Zr2324     O2337   2.450       .  S
Zr2324     O2330   2.400       .  S
Zr2324     O2331   2.378       .  S
Zr2325     O2327   2.435       .  S
Zr2325     O2349   2.436       .  S
Zr2325     O2351   2.685       .  S
Zr2325     O2329   2.373       .  S
Zr2325     O2332   2.395       .  S
Zr2326     O2352   2.436       .  S
Zr2326     O2353   2.434       .  S
Zr2326     O2328   2.437       .  S
Zr2326     O2329   2.372       .  S
Zr2326     O2330   2.436       .  S
O2327      H2364   0.990       .  S
O2328      H2359   0.990       .  S
O2328      H2373   0.990       .  S
O2330      H2356   0.966       .  S
O2331     Zr2341   2.358       .  S
O2332     Zr2341   2.407       .  S
O2332      H2357   0.965       .  S
C2333      C3525   1.490       .  S
C2334      C3573   1.561       .  S
C2335      C3506   1.474       .  S
O2336      H2372   0.990       .  S
O2337      C2339   1.286       .  A
O2338      C2339   1.276       .  A
C2339      C3490   1.466       .  S
O2340     Zr2341   2.438       .  S
O2340      H2369   0.990       .  S
Zr2341     O2344   2.437       .  S
Zr2341     O2345   2.436       .  S
Zr2341     O2346   2.403       .  S
O2342      C2347   1.281       .  A
O2343      H2360   0.990       .  S
O2343      H2375   0.990       .  S
O2344      H2361   0.990       .  S
O2345      H2365   0.990       .  S
O2345      H2374   0.990       .  S
O2346      C2347   1.278       .  A
C2347      C3538   1.456       .  S
O2348      H2367   0.989       .  S
O2348      H2371   0.990       .  S
O2349      H2363   0.990       .  S
O2349      H2370   0.990       .  S
O2350      C2354   1.268       .  A
O2351      C2354   1.335       .  A
O2352      H2362   0.989       .  S
O2353      H2366   0.990       .  S
C2354      C3653   1.565       .  S
Zr2377     O2378   2.450       .  S
Zr2377     O2379   2.450       .  S
Zr2377     O2380   2.420       .  S
Zr2377     O2383   2.431       .  S
Zr2377     O2385   2.402       .  S
Zr2377     O2386   2.382       .  S
Zr2377     O2387   2.420       .  S
Zr2377     O2388   2.394       .  S
O2378      H2434   0.991       .  S
O2378      H2442   0.990       .  S
O2379      C2399   1.283       .  A
O2380      C2401   1.278       .  A
O2381     Zr2391   2.435       .  S
O2381      C2400   1.282       .  A
O2382     Zr2390   2.693       .  S
O2382      C2401   1.339       .  A
O2383      C2400   1.282       .  A
O2384     Zr2392   2.396       .  S
O2384      C2399   1.275       .  A
O2385     Zr2390   2.446       .  S
O2385     Zr2392   2.406       .  S
O2386     Zr2391   2.379       .  S
O2386     Zr2392   2.388       .  S
O2386      H2421   0.963       .  S
O2387     Zr2390   2.410       .  S
O2387     Zr2407   2.360       .  S
O2387      H2424   0.962       .  S
O2388     Zr2391   2.387       .  S
O2388     Zr2407   2.368       .  S
Zr2389     O2414   2.443       .  S
Zr2389     O2408   2.427       .  S
Zr2389     O2416   2.407       .  S
Zr2389     O2404   2.345       .  S
Zr2389     O2395   2.384   1_554  S
Zr2389     O2396   2.404   1_554  S
Zr2389     O2397   2.395   1_554  S
Zr2389     O2398   2.366   1_554  S
Zr2390     O2409   2.434       .  S
Zr2390     O2402   2.434       .  S
Zr2390     O2403   2.713   1_556  S
Zr2390     O2396   2.417       .  S
Zr2390     O2397   2.399       .  S
Zr2391     O2393   2.439       .  S
Zr2391     O2415   2.439       .  S
Zr2391     O2417   2.440       .  S
Zr2391     O2395   2.395       .  S
Zr2391     O2398   2.385       .  S
Zr2392     O2418   2.438       .  S
Zr2392     O2419   2.439   1_556  S
Zr2392     O2394   2.437       .  S
Zr2392     O2395   2.411       .  S
Zr2392     O2396   2.375       .  S
O2393      H2430   0.990       .  S
O2394      H2425   0.990       .  S
O2394      H2439   0.990       .  S
O2396      H2422   0.964   1_556  S
O2397     Zr2407   2.383       .  S
O2398     Zr2407   2.353       .  S
O2398      H2423   0.964       .  S
C2399      C3557   1.464       .  S
C2400      C3522   1.455       .  S
C2401      C3474   1.582       .  S
O2402      H2438   0.990       .  S
O2403      C2405   1.345       .  A
O2404      C2405   1.267       .  A
C2405      C3458   1.573       .  S
O2406     Zr2407   2.438       .  S
O2406      H2435   0.990       .  S
Zr2407     O2410   2.438       .  S
Zr2407     O2411   2.442       .  S
Zr2407     O2412   2.373       .  S
O2408      C2413   1.282       .  A
O2409      H2426   0.990       .  S
O2409      H2441   0.990       .  S
O2410      H2427   0.990       .  S
O2411      H2431   0.989       .  S
O2411      H2440   0.990       .  S
O2412      C2413   1.274   1_556  A
C2413      C3746   1.469       .  S
O2414      H2433   0.991       .  S
O2414      H2437   0.990       .  S
O2415      H2429   0.990       .  S
O2415      H2436   0.991       .  S
O2416      C2420   1.277       .  A
O2417      C2420   1.284   1_556  A
O2418      H2428   0.990       .  S
O2419      H2432   0.990       .  S
C2420      C3701   1.477       .  S
Zr2443     O2444   2.449       .  S
Zr2443     O2445   2.460       .  S
Zr2443     O2446   2.460       .  S
Zr2443     O2449   2.438       .  S
Zr2443     O2451   2.400       .  S
Zr2443     O2452   2.383       .  S
Zr2443     O2453   2.431       .  S
Zr2443     O2454   2.421       .  S
O2444      H2500   0.991       .  S
O2444      H2508   0.986       .  S
O2445      C2465   1.285       .  A
O2446      C2467   1.287       .  A
O2447     Zr2457   2.406       .  S
O2447      C2466   1.278       .  A
O2448     Zr2456   2.688       .  S
O2448      C2467   1.339       .  A
O2449      C2466   1.288       .  A
O2450     Zr2458   2.411       .  S
O2450      C2465   1.277       .  A
O2451     Zr2456   2.434       .  S
O2451     Zr2458   2.408       .  S
O2452     Zr2457   2.369       .  S
O2452     Zr2458   2.362       .  S
O2452      H2487   0.965       .  S
O2453     Zr2456   2.424       .  S
O2453     Zr2473   2.353       .  S
O2453      H2490   0.956       .  S
O2454     Zr2457   2.401       .  S
O2454     Zr2473   2.387       .  S
Zr2455     O2480   2.446       .  S
Zr2455     O2474   2.472       .  S
Zr2455     O2482   2.419       .  S
Zr2455     O2470   2.317       .  S
Zr2455     O2461   2.397       .  S
Zr2455     O2462   2.449       .  S
Zr2455     O2464   2.376       .  S
Zr2455     O2463   2.265       .  S
Zr2456     O2475   2.439       .  S
Zr2456     O2468   2.434       .  S
Zr2456     O2469   2.751       .  S
Zr2456     O2462   2.387       .  S
Zr2456     O2463   2.293       .  S
Zr2457     O2459   2.437       .  S
Zr2457     O2481   2.434       .  S
Zr2457     O2483   2.422       .  S
Zr2457     O2461   2.381       .  S
Zr2457     O2464   2.387       .  S
Zr2458     O2484   2.438       .  S
Zr2458     O2485   2.434       .  S
Zr2458     O2460   2.437       .  S
Zr2458     O2461   2.415       .  S
Zr2458     O2462   2.364       .  S
O2459      H2496   0.990       .  S
O2460      H2491   0.990       .  S
O2460      H2505   0.990       .  S
O2462      H2488   0.965       .  S
O2463     Zr2473   2.288       .  S
O2464     Zr2473   2.342       .  S
O2464      H2489   0.962       .  S
C2465      C5061   1.473       .  S
C2466      C4885   1.457       .  S
C2467      C3445   1.587       .  S
O2468      H2504   0.990       .  S
O2469      C2471   1.351       .  A
O2470      C2471   1.257       .  A
C2471      C3477   1.566       .  S
O2472     Zr2473   2.437       .  S
O2472      H2501   0.990       .  S
Zr2473     O2476   2.440       .  S
Zr2473     O2477   2.446       .  S
Zr2473     O2478   2.385       .  S
O2474      C2479   1.289       .  A
O2475      H2492   0.990       .  S
O2475      H2507   0.990       .  S
O2476      H2493   0.989       .  S
O2477      H2497   0.990       .  S
O2477      H2506   0.990       .  S
O2478      C2479   1.276       .  A
C2479      C3509   1.465       .  S
O2480      H2499   0.992       .  S
O2480      H2503   0.990       .  S
O2481      H2495   0.990       .  S
O2481      H2502   0.990       .  S
O2482      C2486   1.277       .  A
O2483      C2486   1.284       .  A
O2484      H2494   0.990       .  S
O2485      H2498   0.990       .  S
C2486      C3589   1.475       .  S
Zr2509     O2510   2.447       .  S
Zr2509     O2511   2.434       .  S
Zr2509     O2512   2.329       .  S
Zr2509     O2515   2.391       .  S
Zr2509     O2517   2.390       .  S
Zr2509     O2518   2.373       .  S
Zr2509     O2519   2.436       .  S
Zr2509     O2520   2.385       .  S
O2510      H2566   0.990       .  S
O2510      H2574   0.990       .  S
O2511      C2531   1.280       .  A
O2512      C2533   1.254       .  A
O2513     Zr2523   2.432       .  S
O2513      C2532   1.282       .  A
O2514     Zr2522   2.732       .  S
O2514      C2533   1.345       .  A
O2515      C2532   1.275       .  A
O2516     Zr2524   2.410       .  S
O2516      C2531   1.280       .  A
O2517     Zr2522   2.385       .  S
O2517     Zr2524   2.372       .  S
O2518     Zr2523   2.383       .  S
O2518     Zr2524   2.359       .  S
O2518      H2553   0.965       .  S
O2519     Zr2522   2.396       .  S
O2519     Zr2539   2.360       .  S
O2519      H2556   0.965       .  S
O2520     Zr2523   2.391       .  S
O2520     Zr2539   2.405       .  S
Zr2521     O2546   2.446       .  S
Zr2521     O2540   2.442       .  S
Zr2521     O2548   2.431       .  S
Zr2521     O2536   2.402       .  S
Zr2521     O2527   2.394       .  S
Zr2521     O2528   2.420       .  S
Zr2521     O2529   2.394       .  S
Zr2521     O2530   2.375       .  S
Zr2522     O2541   2.435       .  S
Zr2522     O2534   2.436       .  S
Zr2522     O2535   2.686       .  S
Zr2522     O2528   2.422       .  S
Zr2522     O2529   2.428       .  S
Zr2523     O2525   2.435       .  S
Zr2523     O2547   2.439       .  S
Zr2523     O2549   2.402       .  S
Zr2523     O2527   2.405       .  S
Zr2523     O2530   2.397       .  S
Zr2524     O2550   2.436       .  S
Zr2524     O2551   2.435       .  S
Zr2524     O2526   2.436       .  S
Zr2524     O2527   2.395       .  S
Zr2524     O2528   2.371       .  S
O2525      H2562   0.990       .  S
O2526      H2557   0.990       .  S
O2526      H2571   0.990       .  S
O2528      H2554   0.963       .  S
O2529     Zr2539   2.398       .  S
O2530     Zr2539   2.377       .  S
O2530      H2555   0.966       .  S
C2531      C4837   1.454       .  S
C2532      C5125   1.465       .  S
C2533      C3442   1.571       .  S
O2534      H2570   0.990       .  S
O2535      C2537   1.339       .  A
O2536      C2537   1.275       .  A
C2537      C3413   1.582       .  S
O2538     Zr2539   2.438       .  S
O2538      H2567   0.990       .  S
Zr2539     O2542   2.433       .  S
Zr2539     O2543   2.436       .  S
Zr2539     O2544   2.397       .  S
O2540      C2545   1.283       .  A
O2541      H2558   0.990       .  S
O2541      H2573   0.990       .  S
O2542      H2559   0.990       .  S
O2543      H2563   0.990       .  S
O2543      H2572   0.990       .  S
O2544      C2545   1.275       .  A
C2545      C3426   1.471       .  S
O2546      H2565   0.990       .  S
O2546      H2569   0.991       .  S
O2547      H2561   0.990       .  S
O2547      H2568   0.990       .  S
O2548      C2552   1.281       .  A
O2549      C2552   1.277       .  A
O2550      H2560   0.990       .  S
O2551      H2564   0.990       .  S
C2552      C3394   1.462       .  S
Zr2575     O2576   2.439       .  S
Zr2575     O2577   2.415       .  S
Zr2575     O2578   2.342       .  S
Zr2575     O2581   2.389       .  S
Zr2575     O2583   2.402       .  S
Zr2575     O2584   2.382       .  S
Zr2575     O2585   2.422       .  S
Zr2575     O2586   2.374       .  S
O2576      H2632   0.989       .  S
O2576      H2640   0.990       .  S
O2577      C2597   1.277       .  A
O2578      C2599   1.257       .  A
O2579     Zr2589   2.445       .  S
O2579      C2598   1.286       .  A
O2580     Zr2588   2.752       .  S
O2580      C2599   1.348       .  A
O2581      C2598   1.276       .  A
O2582     Zr2590   2.435       .  S
O2582      C2597   1.280       .  A
O2583     Zr2588   2.381       .  S
O2583     Zr2590   2.377       .  S
O2584     Zr2589   2.369       .  S
O2584     Zr2590   2.354       .  S
O2584      H2619   0.965       .  S
O2585     Zr2588   2.408       .  S
O2585     Zr2605   2.369       .  S
O2585      H2622   0.964       .  S
O2586     Zr2589   2.393       .  S
O2586     Zr2605   2.401       .  S
Zr2587     O2612   2.443       .  S
Zr2587     O2606   2.470       .  S
Zr2587     O2614   2.419       .  S
Zr2587     O2602   2.387       .  S
Zr2587     O2593   2.394       .  S
Zr2587     O2594   2.430       .  S
Zr2587     O2595   2.391       .  S
Zr2587     O2596   2.369       .  S
Zr2588     O2607   2.436       .  S
Zr2588     O2600   2.435       .  S
Zr2588     O2601   2.697       .  S
Zr2588     O2594   2.424       .  S
Zr2588     O2595   2.437       .  S
Zr2589     O2591   2.434       .  S
Zr2589     O2613   2.440       .  S
Zr2589     O2615   2.428       .  S
Zr2589     O2593   2.403       .  S
Zr2589     O2596   2.389       .  S
Zr2590     O2616   2.438       .  S
Zr2590     O2617   2.437       .  S
Zr2590     O2592   2.440       .  S
Zr2590     O2593   2.388       .  S
Zr2590     O2594   2.395       .  S
O2591      H2628   0.990       .  S
O2592      H2623   0.989       .  S
O2592      H2637   0.990       .  S
O2594      H2620   0.965       .  S
O2595     Zr2605   2.388       .  S
O2596     Zr2605   2.385       .  S
O2596      H2621   0.964       .  S
C2597      C3378   1.453       .  S
C2598      C3362   1.480       .  S
C2599      C3410   1.602       .  S
O2600      H2636   0.990       .  S
O2601      C2603   1.341       .  A
O2602      C2603   1.273       .  A
C2603      C3461   1.587       .  S
O2604     Zr2605   2.436       .  S
O2604      H2633   0.990       .  S
Zr2605     O2608   2.437       .  S
Zr2605     O2609   2.436       .  S
Zr2605     O2610   2.391       .  S
O2606      C2611   1.288       .  A
O2607      H2624   0.990       .  S
O2607      H2639   0.990       .  S
O2608      H2625   0.990       .  S
O2609      H2629   0.990       .  S
O2609      H2638   0.990       .  S
O2610      C2611   1.276       .  A
C2611      C3685   1.494       .  S
O2612      H2631   0.989       .  S
O2612      H2635   0.991       .  S
O2613      H2627   0.990       .  S
O2613      H2634   0.990       .  S
O2614      C2618   1.281       .  A
O2615      C2618   1.280       .  A
O2616      H2626   0.990       .  S
O2617      H2630   0.990       .  S
C2618      C3794   1.477       .  S
Zr2641     O2642   2.443       .  S
Zr2641     O2643   2.405       .  S
Zr2641     O2644   2.395       .  S
Zr2641     O2647   2.376       .  S
Zr2641     O2649   2.361       .  S
Zr2641     O2650   2.392       .  S
Zr2641     O2651   2.396       .  S
Zr2641     O2652   2.388       .  S
O2642      H2698   0.991       .  S
O2642      H2706   0.990       .  S
O2643      C2663   1.280   1_655  A
O2644      C2665   1.275       .  A
O2645     Zr2655   2.661       .  S
O2645      C2664   1.331       .  A
O2646     Zr2654   2.459       .  S
O2646      C2665   1.289       .  A
O2647      C2664   1.271       .  A
O2648     Zr2656   2.407       .  S
O2648      C2663   1.277   1_655  A
O2649     Zr2654   2.394       .  S
O2649     Zr2656   2.363       .  S
O2650     Zr2655   2.397       .  S
O2650     Zr2656   2.405       .  S
O2650      H2685   0.965   1_655  S
O2651     Zr2654   2.406       .  S
O2651     Zr2671   2.417       .  S
O2651      H2688   0.966       .  S
O2652     Zr2655   2.397       .  S
O2652     Zr2671   2.379       .  S
Zr2653     O2678   2.450       .  S
Zr2653     O2672   2.413       .  S
Zr2653     O2680   2.371       .  S
Zr2653     O2668   2.411       .  S
Zr2653     O2659   2.374       .  S
Zr2653     O2660   2.411       .  S
Zr2653     O2661   2.368       .  S
Zr2653     O2662   2.400       .  S
Zr2654     O2673   2.435       .  S
Zr2654     O2666   2.435       .  S
Zr2654     O2667   2.455       .  S
Zr2654     O2660   2.414       .  S
Zr2654     O2661   2.394       .  S
Zr2655     O2657   2.436       .  S
Zr2655     O2679   2.436   1_655  S
Zr2655     O2681   2.676       .  S
Zr2655     O2659   2.373       .  S
Zr2655     O2662   2.398       .  S
Zr2656     O2682   2.434   1_655  S
Zr2656     O2683   2.437       .  S
Zr2656     O2658   2.436       .  S
Zr2656     O2659   2.364       .  S
Zr2656     O2660   2.408       .  S
O2657      H2694   0.990   1_655  S
O2658      H2689   0.990       .  S
O2658      H2703   0.990       .  S
O2660      H2686   0.966       .  S
O2661     Zr2671   2.345       .  S
O2662     Zr2671   2.404       .  S
O2662      H2687   0.964       .  S
C2663      C3346   1.463       .  S
C2664      C3330   1.556   1_655  S
C2665      C3298   1.467       .  S
O2666      H2702   0.990       .  S
O2667      C2669   1.281       .  A
O2668      C2669   1.271       .  A
C2669      C4677   1.482       .  S
O2670     Zr2671   2.437       .  S
O2670      H2699   0.990       .  S
Zr2671     O2674   2.438       .  S
Zr2671     O2675   2.436       .  S
Zr2671     O2676   2.404       .  S
O2672      C2677   1.276       .  A
O2673      H2690   0.990       .  S
O2673      H2705   0.990       .  S
O2674      H2691   0.990       .  S
O2675      H2695   0.990       .  S
O2675      H2704   0.990       .  S
O2676      C2677   1.277       .  A
C2677      C4581   1.458       .  S
O2678      H2697   0.989       .  S
O2678      H2701   0.990       .  S
O2679      H2693   0.990       .  S
O2679      H2700   0.990       .  S
O2680      C2684   1.271       .  A
O2681      C2684   1.336       .  A
O2682      H2692   0.990       .  S
O2683      H2696   0.990       .  S
C2684      C3317   1.555   1_545  S
Zr2707     O2708   2.445       .  S
Zr2707     O2709   2.409       .  S
Zr2707     O2710   2.451       .  S
Zr2707     O2713   2.395       .  S
Zr2707     O2715   2.378       .  S
Zr2707     O2716   2.415       .  S
Zr2707     O2717   2.407   1_455  S
Zr2707     O2718   2.391   1_455  S
O2708      H2764   0.988       .  S
O2708      H2772   0.990       .  S
O2709      C2729   1.261       .  A
O2710      C2731   1.287       .  A
O2711     Zr2721   2.690       .  S
O2711      C2730   1.338       .  A
O2712     Zr2720   2.434       .  S
O2712      C2731   1.282   1_655  A
O2713      C2730   1.274   1_455  A
O2714     Zr2722   2.400       .  S
O2714      C2729   1.269       .  A
O2715     Zr2720   2.381   1_455  S
O2715     Zr2722   2.397       .  S
O2716     Zr2721   2.394   1_455  S
O2716     Zr2722   2.427       .  S
O2716      H2751   0.967       .  S
O2717     Zr2720   2.424       .  S
O2717     Zr2737   2.404       .  S
O2717      H2754   0.964       .  S
O2718     Zr2721   2.381       .  S
O2718     Zr2737   2.378       .  S
Zr2719     O2744   2.444       .  S
Zr2719     O2738   2.423       .  S
Zr2719     O2746   2.395       .  S
Zr2719     O2734   2.417       .  S
Zr2719     O2725   2.378       .  S
Zr2719     O2726   2.412       .  S
Zr2719     O2727   2.361       .  S
Zr2719     O2728   2.401       .  S
Zr2720     O2739   2.442       .  S
Zr2720     O2732   2.437   1_655  S
Zr2720     O2733   2.423       .  S
Zr2720     O2726   2.408       .  S
Zr2720     O2727   2.403       .  S
Zr2721     O2723   2.435       .  S
Zr2721     O2745   2.435   1_655  S
Zr2721     O2747   2.693       .  S
Zr2721     O2725   2.353       .  S
Zr2721     O2728   2.419       .  S
Zr2722     O2748   2.440       .  S
Zr2722     O2749   2.436       .  S
Zr2722     O2724   2.443       .  S
Zr2722     O2725   2.356   1_455  S
Zr2722     O2726   2.440   1_455  S
O2723      H2760   0.990       .  S
O2724      H2755   0.990       .  S
O2724      H2769   0.989       .  S
O2726      H2752   0.965       .  S
O2727     Zr2737   2.355       .  S
O2728     Zr2737   2.399       .  S
O2728      H2753   0.966       .  S
C2729      C4322   1.451       .  S
C2730      C3282   1.568       .  S
C2731      C4565   1.504       .  S
O2732      H2768   0.990       .  S
O2733      C2735   1.278       .  A
O2734      C2735   1.276       .  A
C2735      C4629   1.466       .  S
O2736     Zr2737   2.441       .  S
O2736      H2765   0.991       .  S
Zr2737     O2740   2.439       .  S
Zr2737     O2741   2.440       .  S
Zr2737     O2742   2.400       .  S
O2738      C2743   1.280       .  A
O2739      H2756   0.989       .  S
O2739      H2771   0.990       .  S
O2740      H2757   0.990       .  S
O2741      H2761   0.990       .  S
O2741      H2770   0.988       .  S
O2742      C2743   1.275       .  A
C2743      C4645   1.475       .  S
O2744      H2763   0.990       .  S
O2744      H2767   0.989       .  S
O2745      H2759   0.990       .  S
O2745      H2766   0.990       .  S
O2746      C2750   1.270       .  A
O2747      C2750   1.338       .  A
O2748      H2758   0.990       .  S
O2749      H2762   0.990       .  S
C2750      C3314   1.561       .  S
Zr2773     O2774   2.444       .  S
Zr2773     O2775   2.420       .  S
Zr2773     O2776   2.373       .  S
Zr2773     O2779   2.427       .  S
Zr2773     O2781   2.373       .  S
Zr2773     O2782   2.382       .  S
Zr2773     O2783   2.416       .  S
Zr2773     O2784   2.339       .  S
O2774      H2830   0.991       .  S
O2774      H2838   0.990       .  S
O2775      C2795   1.279       .  A
O2776      C2797   1.274       .  A
O2777     Zr2787   2.680   1_655  S
O2777      C2796   1.337   1_655  A
O2778     Zr2786   2.451       .  S
O2778      C2797   1.286       .  A
O2779      C2796   1.281       .  A
O2780     Zr2788   2.404       .  S
O2780      C2795   1.276       .  A
O2781     Zr2786   2.392       .  S
O2781     Zr2788   2.362       .  S
O2782     Zr2787   2.411       .  S
O2782     Zr2788   2.420       .  S
O2782      H2817   0.965       .  S
O2783     Zr2786   2.397       .  S
O2783     Zr2803   2.411       .  S
O2783      H2820   0.965       .  S
O2784     Zr2787   2.330       .  S
O2784     Zr2803   2.354       .  S
Zr2785     O2810   2.445       .  S
Zr2785     O2804   2.456       .  S
Zr2785     O2812   2.471       .  S
Zr2785     O2800   2.427       .  S
Zr2785     O2791   2.372       .  S
Zr2785     O2792   2.426       .  S
Zr2785     O2793   2.370       .  S
Zr2785     O2794   2.400       .  S
Zr2786     O2805   2.438       .  S
Zr2786     O2798   2.433       .  S
Zr2786     O2799   2.436       .  S
Zr2786     O2792   2.406       .  S
Zr2786     O2793   2.387       .  S
Zr2787     O2789   2.434   1_455  S
Zr2787     O2811   2.436   1_455  S
Zr2787     O2813   2.652   1_455  S
Zr2787     O2791   2.364       .  S
Zr2787     O2794   2.413       .  S
Zr2788     O2814   2.434       .  S
Zr2788     O2815   2.439       .  S
Zr2788     O2790   2.435       .  S
Zr2788     O2791   2.368       .  S
Zr2788     O2792   2.416       .  S
O2789      H2826   0.990       .  S
O2790      H2821   0.990       .  S
O2790      H2835   0.990       .  S
O2792      H2818   0.966       .  S
O2793     Zr2803   2.347       .  S
O2794     Zr2803   2.426       .  S
O2794      H2819   0.964       .  S
C2795      C3397   1.468       .  S
C2796      C3266   1.564       .  S
C2797      C3381   1.485       .  S
O2798      H2834   0.990       .  S
O2799      C2801   1.285       .  A
O2800      C2801   1.283       .  A
C2801      C4357   1.474       .  S
O2802     Zr2803   2.437       .  S
O2802      H2831   0.990       .  S
Zr2803     O2806   2.438       .  S
Zr2803     O2807   2.437       .  S
Zr2803     O2808   2.379       .  S
O2804      C2809   1.288       .  A
O2805      H2822   0.990       .  S
O2805      H2837   0.990       .  S
O2806      H2823   0.990       .  S
O2807      H2827   0.989       .  S
O2807      H2836   0.990   1_455  S
O2808      C2809   1.271       .  A
C2809      C4517   1.464       .  S
O2810      H2829   0.991       .  S
O2810      H2833   0.990       .  S
O2811      H2825   0.991       .  S
O2811      H2832   0.990       .  S
O2812      C2816   1.290   1_455  A
O2813      C2816   1.330       .  A
O2814      H2824   0.990       .  S
O2815      H2828   0.990       .  S
C2816      C3285   1.573       .  S
Zr2839     O2840   2.439       .  S
Zr2839     O2841   2.432       .  S
Zr2839     O2842   2.429       .  S
Zr2839     O2845   2.445       .  S
Zr2839     O2847   2.395       .  S
Zr2839     O2848   2.416       .  S
Zr2839     O2849   2.420   1_655  S
Zr2839     O2850   2.390   1_655  S
O2840      H2896   0.991       .  S
O2840      H2904   0.990       .  S
O2841      C2861   1.277       .  A
O2842      C2863   1.280   1_655  A
O2843     Zr2853   2.678       .  S
O2843      C2862   1.335       .  A
O2844     Zr2852   2.420       .  S
O2844      C2863   1.278       .  A
O2845      C2862   1.281   1_655  A
O2846     Zr2854   2.414       .  S
O2846      C2861   1.271       .  A
O2847     Zr2852   2.385   1_655  S
O2847     Zr2854   2.384       .  S
O2848     Zr2853   2.404   1_655  S
O2848     Zr2854   2.418       .  S
O2848      H2883   0.966       .  S
O2849     Zr2852   2.401       .  S
O2849     Zr2869   2.416       .  S
O2849      H2886   0.964       .  S
O2850     Zr2853   2.371       .  S
O2850     Zr2869   2.370       .  S
Zr2851     O2876   2.439       .  S
Zr2851     O2870   2.459       .  S
Zr2851     O2878   2.423       .  S
Zr2851     O2866   2.421       .  S
Zr2851     O2858   2.410       .  S
Zr2851     O2859   2.369       .  S
Zr2851     O2860   2.394       .  S
Zr2851     O2857   2.280       .  S
Zr2852     O2871   2.439       .  S
Zr2852     O2864   2.435       .  S
Zr2852     O2865   2.432       .  S
Zr2852     O2858   2.398       .  S
Zr2852     O2859   2.387       .  S
Zr2853     O2855   2.436       .  S
Zr2853     O2877   2.435   1_455  S
Zr2853     O2879   2.648       .  S
Zr2853     O2860   2.437       .  S
Zr2853     O2857   2.265       .  S
Zr2854     O2880   2.437       .  S
Zr2854     O2881   2.429       .  S
Zr2854     O2856   2.437       .  S
Zr2854     O2858   2.410   1_655  S
Zr2854     O2857   2.280   1_655  S
O2855      H2892   0.990       .  S
O2856      H2887   0.989       .  S
O2856      H2901   0.990       .  S
O2858      H2884   0.965       .  S
O2859     Zr2869   2.375       .  S
O2860     Zr2869   2.408       .  S
O2860      H2885   0.966       .  S
C2861      C3250   1.482       .  S
C2862      C3333   1.571       .  S
C2863      C3237   1.487       .  S
O2864      H2900   0.990       .  S
O2865      C2867   1.285       .  A
O2866      C2867   1.280       .  A
C2867      C3429   1.474       .  S
O2868     Zr2869   2.441       .  S
O2868      H2897   0.989       .  S
Zr2869     O2872   2.443       .  S
Zr2869     O2873   2.448       .  S
Zr2869     O2874   2.389       .  S
O2870      C2875   1.287       .  A
O2871      H2888   0.990       .  S
O2871      H2903   0.989       .  S
O2872      H2889   0.991       .  S
O2873      H2893   0.990       .  S
O2873      H2902   0.988       .  S
O2874      C2875   1.269       .  A
C2875      C3365   1.482       .  S
O2876      H2895   0.990       .  S
O2876      H2899   0.990       .  S
O2877      H2891   0.990       .  S
O2877      H2898   0.990       .  S
O2878      C2882   1.283       .  A
O2879      C2882   1.331       .  A
O2880      H2890   0.991       .  S
O2881      H2894   0.990   1_655  S
C2882      C3269   1.562       .  S
Zr2905     O2906   2.443       .  S
Zr2905     O2907   2.470       .  S
Zr2905     O2908   2.369       .  S
Zr2905     O2911   2.435       .  S
Zr2905     O2913   2.386       .  S
Zr2905     O2914   2.373       .  S
Zr2905     O2915   2.420       .  S
Zr2905     O2916   2.330       .  S
O2906      H2962   0.990       .  S
O2906      H2970   0.990       .  S
O2907      C2927   1.286       .  A
O2908      C2929   1.270       .  A
O2909     Zr2919   2.422       .  S
O2909      C2928   1.276       .  A
O2910     Zr2918   2.729       .  S
O2910      C2929   1.349       .  A
O2911      C2928   1.281       .  A
O2912     Zr2920   2.382       .  S
O2912      C2927   1.270       .  A
O2913     Zr2918   2.428       .  S
O2913     Zr2920   2.411       .  S
O2914     Zr2919   2.370       .  S
O2914     Zr2920   2.316       .  S
O2914      H2949   0.962       .  S
O2915     Zr2918   2.419       .  S
O2915     Zr2935   2.336       .  S
O2915      H2952   0.954       .  S
O2916     Zr2919   2.273       .  S
O2916     Zr2935   2.334       .  S
Zr2917     O2942   2.449       .  S
Zr2917     O2936   2.449       .  S
Zr2917     O2944   2.445       .  S
Zr2917     O2932   2.449       .  S
Zr2917     O2923   2.406       .  S
Zr2917     O2924   2.413       .  S
Zr2917     O2925   2.402       .  S
Zr2917     O2926   2.388       .  S
Zr2918     O2937   2.435       .  S
Zr2918     O2930   2.433       .  S
Zr2918     O2931   2.699       .  S
Zr2918     O2924   2.436       .  S
Zr2918     O2925   2.439       .  S
Zr2919     O2921   2.436       .  S
Zr2919     O2943   2.438       .  S
Zr2919     O2945   2.359       .  S
Zr2919     O2923   2.407       .  S
Zr2919     O2926   2.391       .  S
Zr2920     O2946   2.438       .  S
Zr2920     O2947   2.431       .  S
Zr2920     O2922   2.436       .  S
Zr2920     O2923   2.395       .  S
Zr2920     O2924   2.338       .  S
O2921      H2958   0.990       .  S
O2922      H2953   0.990       .  S
O2922      H2967   0.990       .  S
O2924      H2950   0.956       .  S
O2925     Zr2935   2.384       .  S
O2926     Zr2935   2.337       .  S
O2926      H2951   0.965       .  S
C2927      C3301   1.496       .  S
C2928      C3253   1.481       .  S
C2929      C3202   1.570       .  S
O2930      H2966   0.990       .  S
O2931      C2933   1.342       .  A
O2932      C2933   1.284       .  A
C2933      C3218   1.585       .  S
O2934     Zr2935   2.437       .  S
O2934      H2963   0.991       .  S
Zr2935     O2938   2.441       .  S
Zr2935     O2939   2.438       .  S
Zr2935     O2940   2.413       .  S
O2936      C2941   1.284       .  A
O2937      H2954   0.990       .  S
O2937      H2969   0.990       .  S
O2938      H2955   0.990       .  S
O2939      H2959   0.990       .  S
O2939      H2968   0.990       .  S
O2940      C2941   1.277       .  A
C2941      C5301   1.489       .  S
O2942      H2961   0.989       .  S
O2942      H2965   0.989       .  S
O2943      H2957   0.988       .  S
O2943      H2964   0.990       .  S
O2944      C2948   1.286       .  A
O2945      C2948   1.266       .  A
O2946      H2956   0.990       .  S
O2947      H2960   0.991       .  S
C2948      C5189   1.442       .  S
Zr2971     O2972   2.439       .  S
Zr2971     O2973   2.409       .  S
Zr2971     O2974   2.331       .  S
Zr2971     O2977   2.413       .  S
Zr2971     O2979   2.400       .  S
Zr2971     O2980   2.356       .  S
Zr2971     O2981   2.414       .  S
Zr2971     O2982   2.373       .  S
O2972      H3028   0.991       .  S
O2972      H3036   0.989       .  S
O2973      C2993   1.277       .  A
O2974      C2995   1.264       .  A
O2975     Zr2985   2.406       .  S
O2975      C2994   1.277       .  A
O2976     Zr2984   2.709       .  S
O2976      C2995   1.344       .  A
O2977      C2994   1.281       .  A
O2978     Zr2986   2.422       .  S
O2978      C2993   1.282       .  A
O2979     Zr2984   2.415       .  S
O2979     Zr2986   2.373       .  S
O2980     Zr2985   2.379       .  S
O2980     Zr2986   2.369       .  S
O2980      H3015   0.966       .  S
O2981     Zr2984   2.421       .  S
O2981     Zr3001   2.382       .  S
O2981      H3018   0.966       .  S
O2982     Zr2985   2.389       .  S
O2982     Zr3001   2.400       .  S
Zr2983     O3008   2.435       .  S
Zr2983     O3002   2.410       .  S
Zr2983     O3010   2.412       .  S
Zr2983     O2998   2.325       .  S
Zr2983     O2989   2.370       .  S
Zr2983     O2990   2.414       .  S
Zr2983     O2991   2.398       .  S
Zr2983     O2992   2.363       .  S
Zr2984     O3003   2.434       .  S
Zr2984     O2996   2.434       .  S
Zr2984     O2997   2.724       .  S
Zr2984     O2990   2.417       .  S
Zr2984     O2991   2.399       .  S
Zr2985     O2987   2.434       .  S
Zr2985     O3009   2.435       .  S
Zr2985     O3011   2.412       .  S
Zr2985     O2989   2.384       .  S
Zr2985     O2992   2.381       .  S
Zr2986     O3012   2.435       .  S
Zr2986     O3013   2.436       .  S
Zr2986     O2988   2.435       .  S
Zr2986     O2989   2.404       .  S
Zr2986     O2990   2.390       .  S
O2987      H3024   0.989       .  S
O2988      H3019   0.990       .  S
O2988      H3033   0.990       .  S
O2990      H3016   0.966       .  S
O2991     Zr3001   2.374       .  S
O2992     Zr3001   2.377       .  S
O2992      H3017   0.966       .  S
C2993      C3621   1.462       .  S
C2994      C3541   1.480       .  S
C2995      C3186   1.569       .  S
O2996      H3032   0.990       .  S
O2997      C2999   1.348       .  A
O2998      C2999   1.262       .  A
C2999      C3221   1.573       .  S
O3000     Zr3001   2.437       .  S
O3000      H3029   0.990       .  S
Zr3001     O3004   2.438       .  S
Zr3001     O3005   2.438       .  S
Zr3001     O3006   2.421       .  S
O3002      C3007   1.277       .  A
O3003      H3020   0.990       .  S
O3003      H3035   0.990       .  S
O3004      H3021   0.990       .  S
O3005      H3025   0.988       .  S
O3005      H3034   0.990       .  S
O3006      C3007   1.283       .  A
C3007      C5157   1.458       .  S
O3008      H3027   0.989       .  S
O3008      H3031   0.990       .  S
O3009      H3023   0.990       .  S
O3009      H3030   0.989       .  S
O3010      C3014   1.280       .  A
O3011      C3014   1.280       .  A
O3012      H3022   0.990       .  S
O3013      H3026   0.990       .  S
C3014      C5349   1.479       .  S
Zr3037     O3038   2.445       .  S
Zr3037     O3039   2.452       .  S
Zr3037     O3040   2.448       .  S
Zr3037     O3043   2.448       .  S
Zr3037     O3045   2.395       .  S
Zr3037     O3046   2.374       .  S
Zr3037     O3047   2.414       .  S
Zr3037     O3048   2.414       .  S
O3038      H3094   0.991       .  S
O3038      H3102   0.989       .  S
O3039      C3059   1.284       .  A
O3040      C3061   1.284       .  A
O3041     Zr3051   2.358       .  S
O3041      C3060   1.268       .  A
O3042     Zr3050   2.709       .  S
O3042      C3061   1.343       .  A
O3043      C3060   1.286       .  A
O3044     Zr3052   2.416       .  S
O3044      C3059   1.278       .  A
O3045     Zr3050   2.432       .  S
O3045     Zr3052   2.406       .  S
O3046     Zr3051   2.398       .  S
O3046     Zr3052   2.339       .  S
O3046      H3081   0.964       .  S
O3047     Zr3050   2.413       .  S
O3047     Zr3067   2.333       .  S
O3047      H3084   0.955       .  S
O3048     Zr3051   2.394       .  S
O3048     Zr3067   2.403       .  S
Zr3049     O3074   2.440       .  S
Zr3049     O3068   2.470       .  S
Zr3049     O3076   2.429       .  S
Zr3049     O3064   2.395       .  S
Zr3049     O3055   2.433       .  S
Zr3049     O3056   2.416       .  S
Zr3049     O3057   2.397       .  S
Zr3049     O3058   2.377       .  S
Zr3050     O3069   2.434       .  S
Zr3050     O3062   2.434       .  S
Zr3050     O3063   2.682       .  S
Zr3050     O3056   2.436       .  S
Zr3050     O3057   2.427       .  S
Zr3051     O3053   2.434       .  S
Zr3051     O3075   2.434       .  S
Zr3051     O3077   2.397       .  S
Zr3051     O3055   2.392       .  S
Zr3051     O3058   2.376       .  S
Zr3052     O3078   2.437       .  S
Zr3052     O3079   2.435       .  S
Zr3052     O3054   2.438       .  S
Zr3052     O3055   2.417       .  S
Zr3052     O3056   2.345       .  S
O3053      H3090   0.989       .  S
O3054      H3085   0.990       .  S
O3054      H3099   0.990       .  S
O3056      H3082   0.960       .  S
O3057     Zr3067   2.408       .  S
O3058     Zr3067   2.332       .  S
O3058      H3083   0.960       .  S
C3059      C4069   1.478       .  S
C3060      C4194   1.447       .  S
C3061      C3170   1.589       .  S
O3062      H3098   0.990       .  S
O3063      C3065   1.336       .  A
O3064      C3065   1.273       .  A
C3065      C3189   1.565       .  S
O3066     Zr3067   2.436       .  S
O3066      H3095   0.990       .  S
Zr3067     O3070   2.437       .  S
Zr3067     O3071   2.441       .  S
Zr3067     O3072   2.368       .  S
O3068      C3073   1.289       .  A
O3069      H3086   0.990       .  S
O3069      H3101   0.990       .  S
O3070      H3087   0.990       .  S
O3071      H3091   0.990       .  S
O3071      H3100   0.990       .  S
O3072      C3073   1.270       .  A
C3073      C3493   1.466       .  S
O3074      H3093   0.991       .  S
O3074      H3097   0.989       .  S
O3075      H3089   0.990       .  S
O3075      H3096   0.988       .  S
O3076      C3080   1.274       .  A
O3077      C3080   1.270       .  A
O3078      H3088   0.990       .  S
O3079      H3092   0.990       .  S
C3080      C3666   1.475       .  S
Zr3103     O3104   2.437       .  S
Zr3103     O3105   2.446       .  S
Zr3103     O3106   2.316       .  S
Zr3103     O3109   2.404       .  S
Zr3103     O3111   2.388       .  S
Zr3103     O3112   2.366       .  S
Zr3103     O3113   2.417       .  S
Zr3103     O3114   2.378       .  S
O3104      H3160   0.989       .  S
O3104      H3168   0.990       .  S
O3105      C3125   1.285       .  A
O3106      C3127   1.258       .  A
O3107     Zr3117   2.426       .  S
O3107      C3126   1.284       .  A
O3108     Zr3116   2.732       .  S
O3108      C3127   1.348       .  A
O3109      C3126   1.274       .  A
O3110     Zr3118   2.405       .  S
O3110      C3125   1.278       .  A
O3111     Zr3116   2.390       .  S
O3111     Zr3118   2.373       .  S
O3112     Zr3117   2.382       .  S
O3112     Zr3118   2.377       .  S
O3112      H3147   0.966       .  S
O3113     Zr3116   2.407       .  S
O3113     Zr3133   2.388       .  S
O3113      H3150   0.966       .  S
O3114     Zr3117   2.386       .  S
O3114     Zr3133   2.409       .  S
Zr3115     O3140   2.431       .  S
Zr3115     O3134   2.412       .  S
Zr3115     O3142   2.394       .  S
Zr3115     O3130   2.348       .  S
Zr3115     O3121   2.374       .  S
Zr3115     O3122   2.408       .  S
Zr3115     O3123   2.394       .  S
Zr3115     O3124   2.365       .  S
Zr3116     O3135   2.434       .  S
Zr3116     O3128   2.434       .  S
Zr3116     O3129   2.712       .  S
Zr3116     O3122   2.417       .  S
Zr3116     O3123   2.410       .  S
Zr3117     O3119   2.433       .  S
Zr3117     O3141   2.435       .  S
Zr3117     O3143   2.422       .  S
Zr3117     O3121   2.387       .  S
Zr3117     O3124   2.387       .  S
Zr3118     O3144   2.436       .  S
Zr3118     O3145   2.437       .  S
Zr3118     O3120   2.430       .  S
Zr3118     O3121   2.391       .  S
Zr3118     O3122   2.386       .  S
O3119      H3156   0.990       .  S
O3120      H3151   0.989       .  S
O3120      H3165   0.989       .  S
O3122      H3148   0.966       .  S
O3123     Zr3133   2.372       .  S
O3124     Zr3133   2.365       .  S
O3124      H3149   0.965       .  S
C3125      C4133   1.465       .  S
C3126      C4114   1.483       .  S
C3127      C3173   1.577       .  S
O3128      H3164   0.990       .  S
O3129      C3131   1.346       .  A
O3130      C3131   1.268       .  A
C3131      C3205   1.574       .  S
O3132     Zr3133   2.441       .  S
O3132      H3161   0.990       .  S
Zr3133     O3136   2.435       .  S
Zr3133     O3137   2.439       .  S
Zr3133     O3138   2.432       .  S
O3134      C3139   1.279       .  A
O3135      H3152   0.990       .  S
O3135      H3167   0.990       .  S
O3136      H3153   0.990       .  S
O3137      H3157   0.990       .  S
O3137      H3166   0.990       .  S
O3138      C3139   1.284       .  A
C3139      C3234   1.470       .  S
O3140      H3159   0.989       .  S
O3140      H3163   0.989       .  S
O3141      H3155   0.990       .  S
O3141      H3162   0.990       .  S
O3142      C3146   1.277       .  A
O3143      C3146   1.282       .  A
O3144      H3154   0.990       .  S
O3145      H3158   0.990       .  S
C3146      C3349   1.460       .  S
C3169      C3170   1.413       .  A
C3169      C3174   1.450       .  A
C3169      H3176   1.083       .  S
C3170      C3171   1.450       .  A
C3171      C3172   1.445       .  A
C3171      C3178   1.508       .  S
C3172      C3173   1.403       .  A
C3172      H3177   1.076       .  S
C3173      C3174   1.454       .  A
C3174      C3175   1.518       .  S
C3175      F3179   1.383       .  S
C3175      F3180   1.384       .  S
C3175      F3181   1.381       .  S
C3178      F3182   1.379       .  S
C3178      F3183   1.380       .  S
C3178      F3184   1.384       .  S
C3185      C3186   1.429       .  A
C3185      C3190   1.439       .  A
C3185      H3192   1.082       .  S
C3186      C3187   1.423       .  A
C3187      C3188   1.454       .  A
C3187      C3194   1.510       .  S
C3188      C3189   1.433       .  A
C3188      H3193   1.080       .  S
C3189      C3190   1.426       .  A
C3190      C3191   1.516       .  S
C3191      F3195   1.383       .  S
C3191      F3196   1.383       .  S
C3191      F3197   1.383       .  S
C3194      F3198   1.383       .  S
C3194      F3199   1.380       .  S
C3194      F3200   1.384       .  S
C3201      C3202   1.408   1_455  A
C3201      C3206   1.443       .  A
C3201      H3208   1.084   1_455  S
C3202      C3203   1.448   1_655  A
C3203      C3204   1.448       .  A
C3203      C3210   1.510   1_455  S
C3204      C3205   1.410       .  A
C3204      H3209   1.082       .  S
C3205      C3206   1.450       .  A
C3206      C3207   1.512       .  S
C3207      F3211   1.384       .  S
C3207      F3212   1.382       .  S
C3207      F3213   1.381       .  S
C3210      F3214   1.381       .  S
C3210      F3215   1.378       .  S
C3210      F3216   1.384   1_655  S
C3217      C3218   1.412       .  A
C3217      C3222   1.449       .  A
C3217      H3224   1.083       .  S
C3218      C3219   1.444       .  A
C3219      C3220   1.448       .  A
C3219      C3226   1.503       .  S
C3220      C3221   1.410       .  A
C3220      H3225   1.082       .  S
C3221      C3222   1.452       .  A
C3222      C3223   1.516       .  S
C3223      F3227   1.383       .  S
C3223      F3228   1.383       .  S
C3223      F3229   1.382       .  S
C3226      F3230   1.382       .  S
C3226      F3231   1.375       .  S
C3226      F3232   1.385       .  S
C3233      C3234   1.402       .  A
C3233      C3238   1.404       .  A
C3233      H3240   1.085       .  S
C3234      C3235   1.412       .  A
C3235      C3236   1.400       .  A
C3235      C3242   1.513       .  S
C3236      C3237   1.405       .  A
C3236      H3241   1.082       .  S
C3237      C3238   1.418       .  A
C3238      C3239   1.512   1_455  S
C3239      F3243   1.383       .  S
C3239      F3244   1.382   1_655  S
C3239      F3245   1.380       .  S
C3242      F3246   1.380       .  S
C3242      F3247   1.384       .  S
C3242      F3248   1.384       .  S
C3249      C3250   1.408       .  A
C3249      C3254   1.400       .  A
C3249      H3256   1.073       .  S
C3250      C3251   1.410       .  A
C3251      C3252   1.404       .  A
C3251      C3258   1.521       .  S
C3252      C3253   1.415       .  A
C3252      H3257   1.083       .  S
C3253      C3254   1.414       .  A
C3254      C3255   1.521       .  S
C3255      F3259   1.385       .  S
C3255      F3260   1.383       .  S
C3255      F3261   1.382       .  S
C3258      F3262   1.378       .  S
C3258      F3263   1.382       .  S
C3258      F3264   1.382       .  S
C3265      C3266   1.419       .  A
C3265      C3270   1.432       .  A
C3265      H3272   1.078       .  S
C3266      C3267   1.431   1_455  A
C3267      C3268   1.449       .  A
C3267      C3274   1.511       .  S
C3268      C3269   1.426   1_655  A
C3268      H3273   1.079       .  S
C3269      C3270   1.430       .  A
C3270      C3271   1.517       .  S
C3271      F3275   1.382       .  S
C3271      F3276   1.383       .  S
C3271      F3277   1.384       .  S
C3274      F3278   1.381       .  S
C3274      F3279   1.383       .  S
C3274      F3280   1.383       .  S
C3281      C3282   1.419       .  A
C3281      C3286   1.453       .  A
C3281      H3288   1.083       .  S
C3282      C3283   1.442       .  A
C3283      C3284   1.432       .  A
C3283      C3290   1.518       .  S
C3284      C3285   1.411       .  A
C3284      H3289   1.085       .  S
C3285      C3286   1.445       .  A
C3286      C3287   1.509       .  S
C3287      F3291   1.384       .  S
C3287      F3292   1.382   1_655  S
C3287      F3293   1.378       .  S
C3290      F3294   1.384       .  S
C3290      F3295   1.382       .  S
C3290      F3296   1.376       .  S
C3297      C3298   1.405       .  A
C3297      C3302   1.414       .  A
C3297      H3304   1.083       .  S
C3298      C3299   1.410       .  A
C3299      C3300   1.399       .  A
C3299      C3306   1.520       .  S
C3300      C3301   1.412       .  A
C3300      H3305   1.084       .  S
C3301      C3302   1.422       .  A
C3302      C3303   1.518       .  S
C3303      F3307   1.383       .  S
C3303      F3308   1.383       .  S
C3303      F3309   1.385       .  S
C3306      F3310   1.383       .  S
C3306      F3311   1.382       .  S
C3306      F3312   1.384       .  S
C3313      C3314   1.429       .  A
C3313      C3318   1.443       .  A
C3313      H3320   1.081       .  S
C3314      C3315   1.422       .  A
C3315      C3316   1.443       .  A
C3315      C3322   1.514       .  S
C3316      C3317   1.429       .  A
C3316      H3321   1.082       .  S
C3317      C3318   1.421       .  A
C3318      C3319   1.513   1_655  S
C3319      F3323   1.384       .  S
C3319      F3324   1.383   1_565  S
C3319      F3325   1.383   1_465  S
C3322      F3326   1.383       .  S
C3322      F3327   1.383       .  S
C3322      F3328   1.384       .  S
C3329      C3330   1.407       .  A
C3329      C3334   1.434       .  A
C3329      H3336   1.083       .  S
C3330      C3331   1.433   1_455  A
C3331      C3332   1.451       .  A
C3331      C3338   1.505       .  S
C3332      C3333   1.420   1_655  A
C3332      H3337   1.082       .  S
C3333      C3334   1.438       .  A
C3334      C3335   1.506       .  S
C3335      F3339   1.385       .  S
C3335      F3340   1.380       .  S
C3335      F3341   1.376       .  S
C3338      F3342   1.383       .  S
C3338      F3343   1.384       .  S
C3338      F3344   1.377       .  S
C3345      C3346   1.403       .  A
C3345      C3350   1.394       .  A
C3345      H3352   1.084       .  S
C3346      C3347   1.414       .  A
C3347      C3348   1.402       .  A
C3347      C3354   1.519       .  S
C3348      C3349   1.405       .  A
C3348      H3353   1.084       .  S
C3349      C3350   1.412       .  A
C3350      C3351   1.520       .  S
C3351      F3355   1.385       .  S
C3351      F3356   1.382       .  S
C3351      F3357   1.383       .  S
C3354      F3358   1.382       .  S
C3354      F3359   1.383   1_455  S
C3354      F3360   1.385       .  S
C3361      C3362   1.397       .  A
C3361      C3366   1.404       .  A
C3361      H3368   1.083       .  S
C3362      C3363   1.412       .  A
C3363      C3364   1.400       .  A
C3363      C3370   1.510       .  S
C3364      C3365   1.403       .  A
C3364      H3369   1.085       .  S
C3365      C3366   1.429       .  A
C3366      C3367   1.516       .  S
C3367      F3371   1.385       .  S
C3367      F3372   1.382       .  S
C3367      F3373   1.382       .  S
C3370      F3374   1.380       .  S
C3370      F3375   1.384       .  S
C3370      F3376   1.380       .  S
C3377      C3378   1.402       .  A
C3377      C3382   1.400       .  A
C3377      H3384   1.083       .  S
C3378      C3379   1.401       .  A
C3379      C3380   1.398       .  A
C3379      C3386   1.517       .  S
C3380      C3381   1.417       .  A
C3380      H3385   1.081       .  S
C3381      C3382   1.415       .  A
C3382      C3383   1.517       .  S
C3383      F3387   1.382       .  S
C3383      F3388   1.383       .  S
C3383      F3389   1.379       .  S
C3386      F3390   1.382       .  S
C3386      F3391   1.383       .  S
C3386      F3392   1.384       .  S
C3393      C3394   1.400       .  A
C3393      C3398   1.400       .  A
C3393      H3400   1.085       .  S
C3394      C3395   1.413       .  A
C3395      C3396   1.402       .  A
C3395      C3402   1.519       .  S
C3396      C3397   1.404       .  A
C3396      H3401   1.083       .  S
C3397      C3398   1.416       .  A
C3398      C3399   1.518       .  S
C3399      F3403   1.383       .  S
C3399      F3404   1.382       .  S
C3399      F3405   1.383       .  S
C3402      F3406   1.381       .  S
C3402      F3407   1.384       .  S
C3402      F3408   1.384       .  S
C3409      C3410   1.444       .  A
C3409      C3414   1.446       .  A
C3409      H3416   1.079       .  S
C3410      C3411   1.426       .  A
C3411      C3412   1.454       .  A
C3411      C3418   1.508       .  S
C3412      C3413   1.438       .  A
C3412      H3417   1.082       .  S
C3413      C3414   1.418       .  A
C3414      C3415   1.513       .  S
C3415      F3419   1.384       .  S
C3415      F3420   1.383       .  S
C3415      F3421   1.383       .  S
C3418      F3422   1.370       .  S
C3418      F3423   1.384       .  S
C3418      F3424   1.384       .  S
C3425      C3426   1.403       .  A
C3425      C3430   1.407       .  A
C3425      H3432   1.084       .  S
C3426      C3427   1.415       .  A
C3427      C3428   1.401       .  A
C3427      C3434   1.518       .  S
C3428      C3429   1.401       .  A
C3428      H3433   1.084       .  S
C3429      C3430   1.419       .  A
C3430      C3431   1.520       .  S
C3431      F3435   1.385       .  S
C3431      F3436   1.383       .  S
C3431      F3437   1.382       .  S
C3434      F3438   1.380       .  S
C3434      F3439   1.384       .  S
C3434      F3440   1.385       .  S
C3441      C3442   1.407       .  A
C3441      C3446   1.446       .  A
C3441      H3448   1.082       .  S
C3442      C3443   1.451       .  A
C3443      C3444   1.447       .  A
C3443      C3450   1.516       .  S
C3444      C3445   1.412       .  A
C3444      H3449   1.083       .  S
C3445      C3446   1.454       .  A
C3446      C3447   1.517       .  S
C3447      F3451   1.385       .  S
C3447      F3452   1.380       .  S
C3447      F3453   1.377       .  S
C3450      F3454   1.383       .  S
C3450      F3455   1.383       .  S
C3450      F3456   1.384       .  S
C3457      C3458   1.434       .  A
C3457      C3462   1.451       .  A
C3457      H3464   1.082       .  S
C3458      C3459   1.422       .  A
C3459      C3460   1.451       .  A
C3459      C3466   1.514       .  S
C3460      C3461   1.439       .  A
C3460      H3465   1.082       .  S
C3461      C3462   1.426       .  A
C3462      C3463   1.511       .  S
C3463      F3467   1.384       .  S
C3463      F3468   1.383       .  S
C3463      F3469   1.383       .  S
C3466      F3470   1.383       .  S
C3466      F3471   1.383       .  S
C3466      F3472   1.384       .  S
C3473      C3474   1.410       .  A
C3473      C3478   1.446       .  A
C3473      H3480   1.083       .  S
C3474      C3475   1.453       .  A
C3475      C3476   1.445       .  A
C3475      C3482   1.513       .  S
C3476      C3477   1.409       .  A
C3476      H3481   1.084       .  S
C3477      C3478   1.449       .  A
C3478      C3479   1.512       .  S
C3479      F3483   1.384       .  S
C3479      F3484   1.383       .  S
C3479      F3485   1.382       .  S
C3482      F3486   1.376       .  S
C3482      F3487   1.382       .  S
C3482      F3488   1.385       .  S
C3489      C3490   1.403       .  A
C3489      C3494   1.410       .  A
C3489      H3496   1.083       .  S
C3490      C3491   1.413       .  A
C3491      C3492   1.398       .  A
C3491      C3498   1.519       .  S
C3492      C3493   1.402       .  A
C3492      H3497   1.084       .  S
C3493      C3494   1.416       .  A
C3494      C3495   1.516       .  S
C3495      F3499   1.382       .  S
C3495      F3500   1.385       .  S
C3495      F3501   1.383       .  S
C3498      F3502   1.383       .  S
C3498      F3503   1.381       .  S
C3498      F3504   1.383       .  S
C3505      C3506   1.392       .  A
C3505      C3510   1.396       .  A
C3505      H3512   1.085       .  S
C3506      C3507   1.418       .  A
C3507      C3508   1.401       .  A
C3507      C3514   1.506       .  S
C3508      C3509   1.396       .  A
C3508      H3513   1.085       .  S
C3509      C3510   1.425       .  A
C3510      C3511   1.515       .  S
C3511      F3515   1.383       .  S
C3511      F3516   1.383       .  S
C3511      F3517   1.377       .  S
C3514      F3518   1.381       .  S
C3514      F3519   1.381       .  S
C3514      F3520   1.383       .  S
C3521      C3522   1.397       .  A
C3521      C3526   1.405       .  A
C3521      H3528   1.083       .  S
C3522      C3523   1.402       .  A
C3523      C3524   1.399       .  A
C3523      C3530   1.521       .  S
C3524      C3525   1.416       .  A
C3524      H3529   1.082       .  S
C3525      C3526   1.426       .  A
C3526      C3527   1.522       .  S
C3527      F3531   1.383       .  S
C3527      F3532   1.381       .  S
C3527      F3533   1.385       .  S
C3530      F3534   1.383       .  S
C3530      F3535   1.384       .  S
C3530      F3536   1.384       .  S
C3537      C3538   1.395       .  A
C3537      C3542   1.398       .  A
C3537      H3544   1.084       .  S
C3538      C3539   1.407       .  A
C3539      C3540   1.401       .  A
C3539      C3546   1.516       .  S
C3540      C3541   1.411       .  A
C3540      H3545   1.083       .  S
C3541      C3542   1.425       .  A
C3542      C3543   1.521       .  S
C3543      F3547   1.385       .  S
C3543      F3548   1.383       .  S
C3543      F3549   1.383       .  S
C3546      F3550   1.382       .  S
C3546      F3551   1.381       .  S
C3546      F3552   1.384       .  S
C3553      C3554   1.406       .  A
C3553      C3558   1.405       .  A
C3553      H3560   1.082       .  S
C3554      C3555   1.408       .  A
C3555      C3556   1.399       .  A
C3555      C3562   1.518       .  S
C3556      C3557   1.406       .  A
C3556      H3561   1.083       .  S
C3557      C3558   1.407       .  A
C3558      C3559   1.513       .  S
C3559      F3563   1.384       .  S
C3559      F3564   1.383       .  S
C3559      F3565   1.381       .  S
C3562      F3566   1.381       .  S
C3562      F3567   1.383       .  S
C3562      F3568   1.385       .  S
C3569      C3570   1.424       .  A
C3569      C3574   1.442       .  A
C3569      H3576   1.082       .  S
C3570      C3571   1.425       .  A
C3571      C3572   1.448       .  A
C3571      C3578   1.512       .  S
C3572      C3573   1.427       .  A
C3572      H3577   1.082       .  S
C3573      C3574   1.428       .  A
C3574      C3575   1.515       .  S
C3575      F3579   1.385       .  S
C3575      F3580   1.383       .  S
C3575      F3581   1.383       .  S
C3578      F3582   1.383       .  S
C3578      F3583   1.383       .  S
C3578      F3584   1.384       .  S
C3585      C3586   1.403       .  A
C3585      C3590   1.397       .  A
C3585      H3592   1.083       .  S
C3586      C3587   1.422       .  A
C3587      C3588   1.401       .  A
C3587      C3594   1.518       .  S
C3588      C3589   1.401       .  A
C3588      H3593   1.083       .  S
C3589      C3590   1.423       .  A
C3590      C3591   1.522       .  S
C3591      F3595   1.385       .  S
C3591      F3596   1.383       .  S
C3591      F3597   1.378       .  S
C3594      F3598   1.379       .  S
C3594      F3599   1.382       .  S
C3594      F3600   1.385       .  S
C3601      C3602   1.418       .  A
C3601      C3606   1.450       .  A
C3601      H3608   1.083       .  S
C3602      C3603   1.446       .  A
C3603      C3604   1.434       .  A
C3603      C3610   1.520       .  S
C3604      C3605   1.410       .  A
C3604      H3609   1.085       .  S
C3605      C3606   1.440       .  A
C3606      C3607   1.506       .  S
C3607      F3611   1.383       .  S
C3607      F3612   1.381       .  S
C3607      F3613   1.379       .  S
C3610      F3614   1.383       .  S
C3610      F3615   1.378       .  S
C3610      F3616   1.384       .  S
C3617      C3618   1.406       .  A
C3617      C3622   1.392       .  A
C3617      H3624   1.078       .  S
C3618      C3619   1.424       .  A
C3619      C3620   1.409       .  A
C3619      C3626   1.517       .  S
C3620      C3621   1.401       .  A
C3620      H3625   1.084       .  S
C3621      C3622   1.408       .  A
C3622      C3623   1.517       .  S
C3623      F3627   1.383       .  S
C3623      F3628   1.383       .  S
C3623      F3629   1.381       .  S
C3626      F3630   1.382       .  S
C3626      F3631   1.383       .  S
C3626      F3632   1.382       .  S
C3633      C3634   1.421       .  A
C3633      C3638   1.448       .  A
C3633      H3640   1.079       .  S
C3634      C3635   1.433       .  A
C3635      C3636   1.436       .  A
C3635      C3642   1.518       .  S
C3636      C3637   1.416   1_545  A
C3636      H3641   1.081   1_545  S
C3637      C3638   1.428   1_565  A
C3638      C3639   1.510   1_545  S
C3639      F3643   1.384   1_565  S
C3639      F3644   1.384       .  S
C3639      F3645   1.383       .  S
C3642      F3646   1.383       .  S
C3642      F3647   1.383       .  S
C3642      F3648   1.383       .  S
C3649      C3650   1.421       .  A
C3649      C3654   1.446       .  A
C3649      H3656   1.082       .  S
C3650      C3651   1.429       .  A
C3651      C3652   1.445       .  A
C3651      C3658   1.516       .  S
C3652      C3653   1.422       .  A
C3652      H3657   1.081       .  S
C3653      C3654   1.432       .  A
C3654      C3655   1.514       .  S
C3655      F3659   1.385       .  S
C3655      F3660   1.383       .  S
C3655      F3661   1.383       .  S
C3658      F3662   1.383       .  S
C3658      F3663   1.381       .  S
C3658      F3664   1.383       .  S
C3665      C3666   1.410       .  A
C3665      C3670   1.403       .  A
C3665      H3672   1.079       .  S
C3666      C3667   1.418       .  A
C3667      C3668   1.405       .  A
C3667      C3674   1.527       .  S
C3668      C3669   1.412       .  A
C3668      H3673   1.082       .  S
C3669      C3670   1.404       .  A
C3670      C3671   1.521       .  S
C3671      F3675   1.375       .  S
C3671      F3676   1.383       .  S
C3671      F3677   1.380       .  S
C3674      F3678   1.380       .  S
C3674      F3679   1.382       .  S
C3674      F3680   1.377       .  S
C3681      C3682   1.410       .  A
C3681      C3686   1.404       .  A
C3681      H3688   1.081       .  S
C3682      C3683   1.421       .  A
C3683      C3684   1.410       .  A
C3683      C3690   1.521       .  S
C3684      C3685   1.411       .  A
C3684      H3689   1.083       .  S
C3685      C3686   1.420       .  A
C3686      C3687   1.520       .  S
C3687      F3691   1.385       .  S
C3687      F3692   1.382       .  S
C3687      F3693   1.380       .  S
C3690      F3694   1.383       .  S
C3690      F3695   1.383       .  S
C3690      F3696   1.385       .  S
C3697      C3698   1.412       .  A
C3697      C3702   1.405       .  A
C3697      H3704   1.084       .  S
C3698      C3699   1.417       .  A
C3699      C3700   1.397       .  A
C3699      C3706   1.512       .  S
C3700      C3701   1.406       .  A
C3700      H3705   1.083       .  S
C3701      C3702   1.411       .  A
C3702      C3703   1.515       .  S
C3703      F3707   1.384       .  S
C3703      F3708   1.384       .  S
C3703      F3709   1.382   1_554  S
C3706      F3710   1.378       .  S
C3706      F3711   1.380       .  S
C3706      F3712   1.385       .  S
C3713      C3714   1.422       .  A
C3713      C3718   1.442       .  A
C3713      H3720   1.081       .  S
C3714      C3715   1.423   1_556  A
C3715      C3716   1.444       .  A
C3715      C3722   1.514       .  S
C3716      C3717   1.425   1_554  A
C3716      H3721   1.078       .  S
C3717      C3718   1.426       .  A
C3718      C3719   1.515       .  S
C3719      F3723   1.384       .  S
C3719      F3724   1.384       .  S
C3719      F3725   1.383       .  S
C3722      F3726   1.383       .  S
C3722      F3727   1.384       .  S
C3722      F3728   1.383       .  S
C3729      C3730   1.416   1_554  A
C3729      C3734   1.449       .  A
C3729      H3736   1.082       .  S
C3730      C3731   1.433       .  A
C3731      C3732   1.435       .  A
C3731      C3738   1.510       .  S
C3732      C3733   1.411       .  A
C3732      H3737   1.083       .  S
C3733      C3734   1.436   1_556  A
C3734      C3735   1.500       .  S
C3735      F3739   1.385       .  S
C3735      F3740   1.374       .  S
C3735      F3741   1.383       .  S
C3738      F3742   1.378       .  S
C3738      F3743   1.383       .  S
C3738      F3744   1.384       .  S
C3745      C3746   1.406       .  A
C3745      C3750   1.407       .  A
C3745      H3752   1.083       .  S
C3746      C3747   1.418       .  A
C3747      C3748   1.391       .  A
C3747      C3754   1.516   1_554  S
C3748      C3749   1.395       .  A
C3748      H3753   1.085   1_554  S
C3749      C3750   1.410       .  A
C3750      C3751   1.512       .  S
C3751      F3755   1.382       .  S
C3751      F3756   1.382       .  S
C3751      F3757   1.383       .  S
C3754      F3758   1.384       .  S
C3754      F3759   1.384       .  S
C3754      F3760   1.383       .  S
C3761      C3762   1.413   1_554  A
C3761      C3766   1.425       .  A
C3761      H3768   1.079       .  S
C3762      C3763   1.432   1_556  A
C3763      C3764   1.456       .  A
C3763      C3770   1.511   1_554  S
C3764      C3765   1.427   1_455  A
C3764      H3769   1.080   1_455  S
C3765      C3766   1.429   1_655  A
C3766      C3767   1.516   1_455  S
C3767      F3771   1.384   1_655  S
C3767      F3772   1.383       .  S
C3767      F3773   1.383   1_554  S
C3770      F3774   1.382   1_556  S
C3770      F3775   1.383       .  S
C3770      F3776   1.385   1_556  S
C3777      C3778   1.413       .  A
C3777      C3782   1.438       .  A
C3777      H3784   1.084       .  S
C3778      C3779   1.441   1_554  A
C3779      C3780   1.458       .  A
C3779      C3786   1.497       .  S
C3780      C3781   1.420   1_556  A
C3780      H3785   1.082       .  S
C3781      C3782   1.444       .  A
C3782      C3783   1.513       .  S
C3783      F3787   1.383       .  S
C3783      F3788   1.384       .  S
C3783      F3789   1.372       .  S
C3786      F3790   1.379       .  S
C3786      F3791   1.381       .  S
C3786      F3792   1.384       .  S
C3793      C3794   1.403       .  A
C3793      C3798   1.396       .  A
C3793      H3800   1.083       .  S
C3794      C3795   1.417       .  A
C3795      C3796   1.408       .  A
C3795      C3802   1.517       .  S
C3796      C3797   1.403       .  A
C3796      H3801   1.083       .  S
C3797      C3798   1.419       .  A
C3798      C3799   1.525       .  S
C3799      F3803   1.385       .  S
C3799      F3804   1.381       .  S
C3799      F3805   1.383       .  S
C3802      F3806   1.381       .  S
C3802      F3807   1.385       .  S
C3802      F3808   1.382       .  S
C3809      C3810   1.410       .  A
C3809      C3814   1.398       .  A
C3809      H3816   1.082       .  S
C3810      C3811   1.425       .  A
C3811      C3812   1.404       .  A
C3811      C3818   1.521       .  S
C3812      C3813   1.401       .  A
C3812      H3817   1.083       .  S
C3813      C3814   1.409       .  A
C3814      C3815   1.519       .  S
C3815      F3819   1.385       .  S
C3815      F3820   1.381       .  S
C3815      F3821   1.384       .  S
C3818      F3822   1.381       .  S
C3818      F3823   1.380       .  S
C3818      F3824   1.384       .  S
C3825      C3826   1.410       .  A
C3825      C3830   1.415       .  A
C3825      H3832   1.083       .  S
C3826      C3827   1.421       .  A
C3827      C3828   1.407       .  A
C3827      C3834   1.521       .  S
C3828      C3829   1.402       .  A
C3828      H3833   1.084       .  S
C3829      C3830   1.411       .  A
C3830      C3831   1.514       .  S
C3831      F3835   1.384       .  S
C3831      F3836   1.382       .  S
C3831      F3837   1.384       .  S
C3834      F3838   1.383       .  S
C3834      F3839   1.382       .  S
C3834      F3840   1.385       .  S
C3841      C3842   1.396       .  A
C3841      C3846   1.402       .  A
C3841      H3848   1.084       .  S
C3842      C3843   1.421       .  A
C3843      C3844   1.398       .  A
C3843      C3850   1.515       .  S
C3844      C3845   1.402       .  A
C3844      H3849   1.083       .  S
C3845      C3846   1.422       .  A
C3846      C3847   1.512       .  S
C3847      F3851   1.385       .  S
C3847      F3852   1.376       .  S
C3847      F3853   1.383       .  S
C3850      F3854   1.380       .  S
C3850      F3855   1.381       .  S
C3850      F3856   1.385       .  S
C3857      C3858   1.407       .  A
C3857      C3862   1.440       .  A
C3857      H3864   1.081       .  S
C3858      C3859   1.448       .  A
C3859      C3860   1.445       .  A
C3859      C3866   1.514       .  S
C3860      C3861   1.411       .  A
C3860      H3865   1.084       .  S
C3861      C3862   1.451       .  A
C3862      C3863   1.514       .  S
C3863      F3867   1.385       .  S
C3863      F3868   1.379       .  S
C3863      F3869   1.381       .  S
C3866      F3870   1.384       .  S
C3866      F3871   1.383       .  S
C3866      F3872   1.382       .  S
C3873      C3874   1.393       .  A
C3873      C3878   1.396       .  A
C3873      H3880   1.079       .  S
C3874      C3875   1.410       .  A
C3875      C3876   1.392       .  A
C3875      C3882   1.514       .  S
C3876      C3877   1.407       .  A
C3876      H3881   1.084       .  S
C3877      C3878   1.423       .  A
C3878      C3879   1.512       .  S
C3879      F3883   1.386       .  S
C3879      F3884   1.382       .  S
C3879      F3885   1.380       .  S
C3882      F3886   1.383       .  S
C3882      F3887   1.379       .  S
C3882      F3888   1.384       .  S
C3889      C3890   1.440       .  A
C3889      C3894   1.452       .  A
C3889      H3896   1.082       .  S
C3890      C3891   1.422       .  A
C3891      C3892   1.447       .  A
C3891      C3898   1.515       .  S
C3892      C3893   1.439       .  A
C3892      H3897   1.080       .  S
C3893      C3894   1.423       .  A
C3894      C3895   1.511       .  S
C3895      F3899   1.385       .  S
C3895      F3900   1.382       .  S
C3895      F3901   1.383       .  S
C3898      F3902   1.378       .  S
C3898      F3903   1.383       .  S
C3898      F3904   1.384       .  S
C3905      C3906   1.436       .  A
C3905      C3910   1.450       .  A
C3905      H3912   1.084       .  S
C3906      C3907   1.424       .  A
C3907      C3908   1.455       .  A
C3907      C3914   1.511       .  S
C3908      C3909   1.441       .  A
C3908      H3913   1.083       .  S
C3909      C3910   1.429       .  A
C3910      C3911   1.511       .  S
C3911      F3915   1.384       .  S
C3911      F3916   1.382       .  S
C3911      F3917   1.381       .  S
C3914      F3918   1.383       .  S
C3914      F3919   1.383       .  S
C3914      F3920   1.384       .  S
C3921      C3922   1.411       .  A
C3921      C3926   1.445       .  A
C3921      H3928   1.082       .  S
C3922      C3923   1.447       .  A
C3923      C3924   1.447       .  A
C3923      C3930   1.513       .  S
C3924      C3925   1.413       .  A
C3924      H3929   1.083       .  S
C3925      C3926   1.451       .  A
C3926      C3927   1.517       .  S
C3927      F3931   1.381       .  S
C3927      F3932   1.380       .  S
C3927      F3933   1.384       .  S
C3930      F3934   1.384       .  S
C3930      F3935   1.380       .  S
C3930      F3936   1.384       .  S
C3937      C3938   1.408       .  A
C3937      C3942   1.401       .  A
C3937      H3944   1.082       .  S
C3938      C3939   1.416       .  A
C3939      C3940   1.403       .  A
C3939      C3946   1.520       .  S
C3940      C3941   1.408       .  A
C3940      H3945   1.082       .  S
C3941      C3942   1.411       .  A
C3942      C3943   1.515       .  S
C3943      F3947   1.382       .  S
C3943      F3948   1.384       .  S
C3943      F3949   1.383       .  S
C3946      F3950   1.375       .  S
C3946      F3951   1.381       .  S
C3946      F3952   1.383       .  S
C3953      C3954   1.395       .  A
C3953      C3958   1.390       .  A
C3953      H3960   1.084       .  S
C3954      C3955   1.406   1_455  A
C3955      C3956   1.398       .  A
C3955      C3962   1.515       .  S
C3956      C3957   1.403       .  A
C3956      H3961   1.084       .  S
C3957      C3958   1.416   1_655  A
C3958      C3959   1.520       .  S
C3959      F3963   1.386       .  S
C3959      F3964   1.383       .  S
C3959      F3965   1.379       .  S
C3962      F3966   1.383       .  S
C3962      F3967   1.382       .  S
C3962      F3968   1.384       .  S
C3969      C3970   1.405       .  A
C3969      C3974   1.407       .  A
C3969      H3976   1.083       .  S
C3970      C3971   1.409       .  A
C3971      C3972   1.403       .  A
C3971      C3978   1.516   1_655  S
C3972      C3973   1.409       .  A
C3972      H3977   1.083       .  S
C3973      C3974   1.417       .  A
C3974      C3975   1.518       .  S
C3975      F3979   1.385       .  S
C3975      F3980   1.384       .  S
C3975      F3981   1.382       .  S
C3978      F3982   1.384       .  S
C3978      F3983   1.378       .  S
C3978      F3984   1.383       .  S
C3985      C3986   1.413       .  A
C3985      C3990   1.447       .  A
C3985      H3992   1.083       .  S
C3986      C3987   1.443   1_455  A
C3987      C3988   1.446       .  A
C3987      C3994   1.516       .  S
C3988      C3989   1.414   1_655  A
C3988      H3993   1.082       .  S
C3989      C3990   1.445       .  A
C3990      C3991   1.513       .  S
C3991      F3995   1.383       .  S
C3991      F3996   1.382       .  S
C3991      F3997   1.384       .  S
C3994      F3998   1.384       .  S
C3994      F3999   1.380       .  S
C3994      F4000   1.385       .  S
C4001      C4002   1.410       .  A
C4001      C4006   1.408       .  A
C4001      H4008   1.083       .  S
C4002      C4003   1.414       .  A
C4003      C4004   1.412       .  A
C4003      C4010   1.515       .  S
C4004      C4005   1.408       .  A
C4004      H4009   1.083       .  S
C4005      C4006   1.414       .  A
C4006      C4007   1.519       .  S
C4007      F4011   1.385       .  S
C4007      F4012   1.382       .  S
C4007      F4013   1.383       .  S
C4010      F4014   1.384       .  S
C4010      F4015   1.382       .  S
C4010      F4016   1.384       .  S
C4017      C4018   1.433       .  A
C4017      C4022   1.450       .  A
C4017      H4024   1.083       .  S
C4018      C4019   1.419   1_655  A
C4019      C4020   1.447       .  A
C4019      C4026   1.514       .  S
C4020      C4021   1.441       .  A
C4020      H4025   1.082       .  S
C4021      C4022   1.434   1_455  A
C4022      C4023   1.513       .  S
C4023      F4027   1.383       .  S
C4023      F4028   1.378       .  S
C4023      F4029   1.383       .  S
C4026      F4030   1.384   1_455  S
C4026      F4031   1.383       .  S
C4026      F4032   1.384       .  S
C4033      C4034   1.437       .  A
C4033      C4038   1.448       .  A
C4033      H4040   1.083       .  S
C4034      C4035   1.423       .  A
C4035      C4036   1.447   1_655  A
C4035      C4042   1.512   1_655  S
C4036      C4037   1.434   1_455  A
C4036      H4041   1.083       .  S
C4037      C4038   1.421       .  A
C4038      C4039   1.512       .  S
C4039      F4043   1.384       .  S
C4039      F4044   1.383       .  S
C4039      F4045   1.383       .  S
C4042      F4046   1.380       .  S
C4042      F4047   1.383   1_455  S
C4042      F4048   1.384       .  S
C4049      C4050   1.435       .  A
C4049      C4054   1.460       .  A
C4049      H4056   1.082   1_655  S
C4050      C4051   1.421       .  A
C4051      C4052   1.436       .  A
C4051      C4058   1.519       .  S
C4052      C4053   1.432       .  A
C4052      H4057   1.078       .  S
C4053      C4054   1.430       .  A
C4054      C4055   1.512   1_655  S
C4055      F4059   1.384       .  S
C4055      F4060   1.381       .  S
C4055      F4061   1.383       .  S
C4058      F4062   1.383       .  S
C4058      F4063   1.383       .  S
C4058      F4064   1.384       .  S
C4065      C4066   1.397       .  A
C4065      C4070   1.402       .  A
C4065      H4072   1.084       .  S
C4066      C4067   1.419       .  A
C4067      C4068   1.414       .  A
C4067      C4074   1.517       .  S
C4068      C4069   1.403       .  A
C4068      H4073   1.083       .  S
C4069      C4070   1.415       .  A
C4070      C4071   1.513       .  S
C4071      F4075   1.384       .  S
C4071      F4076   1.380       .  S
C4071      F4077   1.382       .  S
C4074      F4078   1.383       .  S
C4074      F4079   1.382       .  S
C4074      F4080   1.385       .  S
C4081      C4082   1.399       .  A
C4081      C4086   1.392       .  A
C4081      H4088   1.084       .  S
C4082      C4083   1.424       .  A
C4083      C4084   1.405       .  A
C4083      C4090   1.510       .  S
C4084      C4085   1.396       .  A
C4084      H4089   1.085       .  S
C4085      C4086   1.417       .  A
C4086      C4087   1.511   1_565  S
C4087      F4091   1.385       .  S
C4087      F4092   1.382       .  S
C4087      F4093   1.376       .  S
C4090      F4094   1.380       .  S
C4090      F4095   1.380       .  S
C4090      F4096   1.382       .  S
C4097      C4098   1.401       .  A
C4097      C4102   1.403       .  A
C4097      H4104   1.083       .  S
C4098      C4099   1.407       .  A
C4099      C4100   1.393       .  A
C4099      C4106   1.517       .  S
C4100      C4101   1.409       .  A
C4100      H4105   1.084       .  S
C4101      C4102   1.423       .  A
C4102      C4103   1.518       .  S
C4103      F4107   1.379       .  S
C4103      F4108   1.383       .  S
C4103      F4109   1.385       .  S
C4106      F4110   1.381       .  S
C4106      F4111   1.384       .  S
C4106      F4112   1.385       .  S
C4113      C4114   1.407       .  A
C4113      C4118   1.400       .  A
C4113      H4120   1.083       .  S
C4114      C4115   1.426       .  A
C4115      C4116   1.398       .  A
C4115      C4122   1.518       .  S
C4116      C4117   1.394       .  A
C4116      H4121   1.084       .  S
C4117      C4118   1.413       .  A
C4118      C4119   1.518       .  S
C4119      F4123   1.385       .  S
C4119      F4124   1.382       .  S
C4119      F4125   1.383       .  S
C4122      F4126   1.381       .  S
C4122      F4127   1.381       .  S
C4122      F4128   1.385       .  S
C4129      C4130   1.402       .  A
C4129      C4134   1.396       .  A
C4129      H4136   1.084       .  S
C4130      C4131   1.420       .  A
C4131      C4132   1.407       .  A
C4131      C4138   1.511       .  S
C4132      C4133   1.402       .  A
C4132      H4137   1.084       .  S
C4133      C4134   1.419       .  A
C4134      C4135   1.518       .  S
C4135      F4139   1.382       .  S
C4135      F4140   1.383       .  S
C4135      F4141   1.377       .  S
C4138      F4142   1.383       .  S
C4138      F4143   1.381       .  S
C4138      F4144   1.384       .  S
C4145      C4146   1.402       .  A
C4145      C4150   1.397       .  A
C4145      H4152   1.085       .  S
C4146      C4147   1.413       .  A
C4147      C4148   1.408       .  A
C4147      C4154   1.519       .  S
C4148      C4149   1.409       .  A
C4148      H4153   1.083       .  S
C4149      C4150   1.416       .  A
C4150      C4151   1.521       .  S
C4151      F4155   1.381       .  S
C4151      F4156   1.381       .  S
C4151      F4157   1.384       .  S
C4154      F4158   1.381       .  S
C4154      F4159   1.384       .  S
C4154      F4160   1.384       .  S
C4161      C4162   1.419       .  A
C4161      C4166   1.436       .  A
C4161      H4168   1.079       .  S
C4162      C4163   1.429   1_545  A
C4163      C4164   1.449       .  A
C4163      C4170   1.512       .  S
C4164      C4165   1.423   1_565  A
C4164      H4169   1.077       .  S
C4165      C4166   1.429       .  A
C4166      C4167   1.516       .  S
C4167      F4171   1.384       .  S
C4167      F4172   1.383       .  S
C4167      F4173   1.383       .  S
C4170      F4174   1.382       .  S
C4170      F4175   1.383       .  S
C4170      F4176   1.385       .  S
C4177      C4178   1.404       .  A
C4177      C4182   1.395       .  A
C4177      H4184   1.084       .  S
C4178      C4179   1.419       .  A
C4179      C4180   1.398       .  A
C4179      C4186   1.514       .  S
C4180      C4181   1.401       .  A
C4180      H4185   1.085       .  S
C4181      C4182   1.415       .  A
C4182      C4183   1.511       .  S
C4183      F4187   1.377       .  S
C4183      F4188   1.382       .  S
C4183      F4189   1.383       .  S
C4186      F4190   1.382       .  S
C4186      F4191   1.383       .  S
C4186      F4192   1.385       .  S
C4193      C4194   1.404       .  A
C4193      C4198   1.397       .  A
C4193      H4200   1.080       .  S
C4194      C4195   1.407       .  A
C4195      C4196   1.394       .  A
C4195      C4202   1.523       .  S
C4196      C4197   1.407       .  A
C4196      H4201   1.080       .  S
C4197      C4198   1.407       .  A
C4198      C4199   1.519       .  S
C4199      F4203   1.384       .  S
C4199      F4204   1.379       .  S
C4199      F4205   1.383       .  S
C4202      F4206   1.381       .  S
C4202      F4207   1.381       .  S
C4202      F4208   1.382       .  S
C4209      C4210   1.405   1_545  A
C4209      C4214   1.397       .  A
C4209      H4216   1.076       .  S
C4210      C4211   1.409       .  A
C4211      C4212   1.406       .  A
C4211      C4218   1.515       .  S
C4212      C4213   1.406   1_565  A
C4212      H4217   1.083       .  S
C4213      C4214   1.403       .  A
C4214      C4215   1.516       .  S
C4215      F4219   1.385       .  S
C4215      F4220   1.383       .  S
C4215      F4221   1.382       .  S
C4218      F4222   1.383       .  S
C4218      F4223   1.383       .  S
C4218      F4224   1.384       .  S
C4225      C4226   1.431   1_565  A
C4225      C4230   1.449       .  A
C4225      H4232   1.081       .  S
C4226      C4227   1.431       .  A
C4227      C4228   1.440       .  A
C4227      C4234   1.514       .  S
C4228      C4229   1.425       .  A
C4228      H4233   1.085       .  S
C4229      C4230   1.422   1_545  A
C4230      C4231   1.511       .  S
C4231      F4235   1.384       .  S
C4231      F4236   1.383       .  S
C4231      F4237   1.383       .  S
C4234      F4238   1.381       .  S
C4234      F4239   1.383       .  S
C4234      F4240   1.384       .  S
C4241      C4242   1.406       .  A
C4241      C4246   1.411       .  A
C4241      H4248   1.083       .  S
C4242      C4243   1.416       .  A
C4243      C4244   1.408       .  A
C4243      C4250   1.513       .  S
C4244      C4245   1.402       .  A
C4244      H4249   1.083       .  S
C4245      C4246   1.416       .  A
C4246      C4247   1.517       .  S
C4247      F4251   1.385       .  S
C4247      F4252   1.382       .  S
C4247      F4253   1.381       .  S
C4250      F4254   1.381       .  S
C4250      F4255   1.380       .  S
C4250      F4256   1.384       .  S
C4257      C4258   1.407       .  A
C4257      C4262   1.407       .  A
C4257      H4264   1.083       .  S
C4258      C4259   1.419       .  A
C4259      C4260   1.407       .  A
C4259      C4266   1.518       .  S
C4260      C4261   1.404       .  A
C4260      H4265   1.084       .  S
C4261      C4262   1.415       .  A
C4262      C4263   1.517       .  S
C4263      F4267   1.384       .  S
C4263      F4268   1.383       .  S
C4263      F4269   1.383       .  S
C4266      F4270   1.383       .  S
C4266      F4271   1.381       .  S
C4266      F4272   1.386       .  S
C4273      C4274   1.423       .  A
C4273      C4278   1.449       .  A
C4273      H4280   1.082       .  S
C4274      C4275   1.431       .  A
C4275      C4276   1.441       .  A
C4275      C4282   1.517       .  S
C4276      C4277   1.418       .  A
C4276      H4281   1.080       .  S
C4277      C4278   1.430       .  A
C4278      C4279   1.513       .  S
C4279      F4283   1.384       .  S
C4279      F4284   1.384       .  S
C4279      F4285   1.381   1_545  S
C4282      F4286   1.383   1_556  S
C4282      F4287   1.381       .  S
C4282      F4288   1.384       .  S
C4289      C4290   1.427       .  A
C4289      C4294   1.460       .  A
C4289      H4296   1.083       .  S
C4290      C4291   1.444       .  A
C4291      C4292   1.425       .  A
C4291      C4298   1.518       .  S
C4292      C4293   1.408       .  A
C4292      H4297   1.085       .  S
C4293      C4294   1.443       .  A
C4294      C4295   1.511       .  S
C4295      F4299   1.384       .  S
C4295      F4300   1.382       .  S
C4295      F4301   1.380       .  S
C4298      F4302   1.382       .  S
C4298      F4303   1.372       .  S
C4298      F4304   1.385       .  S
C4305      C4306   1.410       .  A
C4305      C4310   1.401       .  A
C4305      H4312   1.082   1_565  S
C4306      C4307   1.418       .  A
C4307      C4308   1.397       .  A
C4307      C4314   1.515       .  S
C4308      C4309   1.399       .  A
C4308      H4313   1.085       .  S
C4309      C4310   1.410       .  A
C4310      C4311   1.520   1_565  S
C4311      F4315   1.384       .  S
C4311      F4316   1.384       .  S
C4311      F4317   1.383   1_545  S
C4314      F4318   1.383       .  S
C4314      F4319   1.383       .  S
C4314      F4320   1.384       .  S
C4321      C4322   1.400       .  A
C4321      C4326   1.390       .  A
C4321      H4328   1.082       .  S
C4322      C4323   1.411       .  A
C4323      C4324   1.400       .  A
C4323      C4330   1.520       .  S
C4324      C4325   1.404       .  A
C4324      H4329   1.084       .  S
C4325      C4326   1.411       .  A
C4326      C4327   1.521       .  S
C4327      F4331   1.384       .  S
C4327      F4332   1.381       .  S
C4327      F4333   1.379       .  S
C4330      F4334   1.382       .  S
C4330      F4335   1.383       .  S
C4330      F4336   1.384       .  S
C4337      C4338   1.412       .  A
C4337      C4342   1.402       .  A
C4337      H4344   1.084       .  S
C4338      C4339   1.414       .  A
C4339      C4340   1.400       .  A
C4339      C4346   1.522       .  S
C4340      C4341   1.409       .  A
C4340      H4345   1.077       .  S
C4341      C4342   1.409       .  A
C4342      C4343   1.519       .  S
C4343      F4347   1.382       .  S
C4343      F4348   1.382       .  S
C4343      F4349   1.380       .  S
C4346      F4350   1.382       .  S
C4346      F4351   1.381       .  S
C4346      F4352   1.384       .  S
C4353      C4354   1.404       .  A
C4353      C4358   1.405       .  A
C4353      H4360   1.083       .  S
C4354      C4355   1.411       .  A
C4355      C4356   1.405       .  A
C4355      C4362   1.513       .  S
C4356      C4357   1.406       .  A
C4356      H4361   1.085       .  S
C4357      C4358   1.412       .  A
C4358      C4359   1.515       .  S
C4359      F4363   1.382       .  S
C4359      F4364   1.383       .  S
C4359      F4365   1.385       .  S
C4362      F4366   1.384       .  S
C4362      F4367   1.381       .  S
C4362      F4368   1.385       .  S
C4369      C4370   1.405       .  A
C4369      C4374   1.411       .  A
C4369      H4376   1.083       .  S
C4370      C4371   1.437       .  A
C4371      C4372   1.407       .  A
C4371      C4378   1.523       .  S
C4372      C4373   1.393       .  A
C4372      H4377   1.083       .  S
C4373      C4374   1.418       .  A
C4374      C4375   1.514       .  S
C4375      F4379   1.385       .  S
C4375      F4380   1.381       .  S
C4375      F4381   1.384       .  S
C4378      F4382   1.378       .  S
C4378      F4383   1.381       .  S
C4378      F4384   1.384       .  S
C4385      C4386   1.409       .  A
C4385      C4390   1.397       .  A
C4385      H4392   1.083       .  S
C4386      C4387   1.410       .  A
C4387      C4388   1.394       .  A
C4387      C4394   1.513       .  S
C4388      C4389   1.404       .  A
C4388      H4393   1.085       .  S
C4389      C4390   1.404       .  A
C4390      C4391   1.513       .  S
C4391      F4395   1.385       .  S
C4391      F4396   1.384       .  S
C4391      F4397   1.382       .  S
C4394      F4398   1.382       .  S
C4394      F4399   1.381       .  S
C4394      F4400   1.383       .  S
C4401      C4402   1.406       .  A
C4401      C4406   1.397       .  A
C4401      H4408   1.083       .  S
C4402      C4403   1.425       .  A
C4403      C4404   1.407       .  A
C4403      C4410   1.519       .  S
C4404      C4405   1.399       .  A
C4404      H4409   1.083       .  S
C4405      C4406   1.413       .  A
C4406      C4407   1.520       .  S
C4407      F4411   1.385       .  S
C4407      F4412   1.380       .  S
C4407      F4413   1.382       .  S
C4410      F4414   1.383       .  S
C4410      F4415   1.382       .  S
C4410      F4416   1.385       .  S
C4417      C4418   1.432       .  A
C4417      C4422   1.439       .  A
C4417      H4424   1.083       .  S
C4418      C4419   1.432       .  A
C4419      C4420   1.450       .  A
C4419      C4426   1.513   1_556  S
C4420      C4421   1.430       .  A
C4420      H4425   1.078   1_556  S
C4421      C4422   1.424       .  A
C4422      C4423   1.513       .  S
C4423      F4427   1.383       .  S
C4423      F4428   1.383       .  S
C4423      F4429   1.383       .  S
C4426      F4430   1.381       .  S
C4426      F4431   1.380       .  S
C4426      F4432   1.383       .  S
C4433      C4434   1.396       .  A
C4433      C4438   1.406       .  A
C4433      H4440   1.085       .  S
C4434      C4435   1.417       .  A
C4435      C4436   1.395       .  A
C4435      C4442   1.524       .  S
C4436      C4437   1.409       .  A
C4436      H4441   1.083       .  S
C4437      C4438   1.429       .  A
C4438      C4439   1.511       .  S
C4439      F4443   1.384       .  S
C4439      F4444   1.383       .  S
C4439      F4445   1.373       .  S
C4442      F4446   1.383       .  S
C4442      F4447   1.376       .  S
C4442      F4448   1.381       .  S
C4449      C4450   1.399   1_556  A
C4449      C4454   1.402       .  A
C4449      H4456   1.085       .  S
C4450      C4451   1.410       .  A
C4451      C4452   1.392       .  A
C4451      C4458   1.515       .  S
C4452      C4453   1.405       .  A
C4452      H4457   1.080       .  S
C4453      C4454   1.422   1_554  A
C4454      C4455   1.512       .  S
C4455      F4459   1.385       .  S
C4455      F4460   1.383       .  S
C4455      F4461   1.380       .  S
C4458      F4462   1.382       .  S
C4458      F4463   1.383       .  S
C4458      F4464   1.384       .  S
C4465      C4466   1.397       .  A
C4465      C4470   1.396       .  A
C4465      H4472   1.083       .  S
C4466      C4467   1.409       .  A
C4467      C4468   1.389       .  A
C4467      C4474   1.516       .  S
C4468      C4469   1.402       .  A
C4468      H4473   1.084       .  S
C4469      C4470   1.421       .  A
C4470      C4471   1.522       .  S
C4471      F4475   1.385       .  S
C4471      F4476   1.383       .  S
C4471      F4477   1.378       .  S
C4474      F4478   1.381       .  S
C4474      F4479   1.384       .  S
C4474      F4480   1.385       .  S
C4481      C4482   1.417       .  A
C4481      C4486   1.457       .  A
C4481      H4488   1.083       .  S
C4482      C4483   1.452   1_554  A
C4483      C4484   1.450       .  A
C4483      C4490   1.509       .  S
C4484      C4485   1.408   1_556  A
C4484      H4489   1.075       .  S
C4485      C4486   1.457       .  A
C4486      C4487   1.518       .  S
C4487      F4491   1.385       .  S
C4487      F4492   1.383       .  S
C4487      F4493   1.379       .  S
C4490      F4494   1.376   1_556  S
C4490      F4495   1.379       .  S
C4490      F4496   1.381       .  S
C4497      C4498   1.392       .  A
C4497      C4502   1.396       .  A
C4497      H4504   1.084       .  S
C4498      C4499   1.416       .  A
C4499      C4500   1.406       .  A
C4499      C4506   1.515       .  S
C4500      C4501   1.399       .  A
C4500      H4505   1.083       .  S
C4501      C4502   1.421       .  A
C4502      C4503   1.513       .  S
C4503      F4507   1.386       .  S
C4503      F4508   1.372       .  S
C4503      F4509   1.381       .  S
C4506      F4510   1.378       .  S
C4506      F4511   1.383       .  S
C4506      F4512   1.385       .  S
C4513      C4514   1.401       .  A
C4513      C4518   1.396       .  A
C4513      H4520   1.083       .  S
C4514      C4515   1.415   1_655  A
C4515      C4516   1.402       .  A
C4515      C4522   1.516       .  S
C4516      C4517   1.400       .  A
C4516      H4521   1.084       .  S
C4517      C4518   1.418   1_455  A
C4518      C4519   1.518       .  S
C4519      F4523   1.385       .  S
C4519      F4524   1.381       .  S
C4519      F4525   1.382       .  S
C4522      F4526   1.380       .  S
C4522      F4527   1.383       .  S
C4522      F4528   1.380       .  S
C4529      C4530   1.408   1_455  A
C4529      C4534   1.447       .  A
C4529      H4536   1.081   1_456  S
C4530      C4531   1.452   1_655  A
C4531      C4532   1.447       .  A
C4531      C4538   1.517   1_455  S
C4532      C4533   1.410       .  A
C4532      H4537   1.083       .  S
C4533      C4534   1.449       .  A
C4534      C4535   1.510   1_556  S
C4535      F4539   1.383       .  S
C4535      F4540   1.378   1_554  S
C4535      F4541   1.381       .  S
C4538      F4542   1.383       .  S
C4538      F4543   1.382   1_655  S
C4538      F4544   1.384   1_655  S
C4545      C4546   1.433       .  A
C4545      C4550   1.443       .  A
C4545      H4552   1.082       .  S
C4546      C4547   1.428       .  A
C4547      C4548   1.455       .  A
C4547      C4554   1.513   1_554  S
C4548      C4549   1.433       .  A
C4548      H4553   1.079   1_554  S
C4549      C4550   1.422       .  A
C4550      C4551   1.512       .  S
C4551      F4555   1.384       .  S
C4551      F4556   1.383       .  S
C4551      F4557   1.383       .  S
C4554      F4558   1.385       .  S
C4554      F4559   1.381       .  S
C4554      F4560   1.383       .  S
C4561      C4562   1.397       .  A
C4561      C4566   1.407   1_655  A
C4561      H4568   1.082       .  S
C4562      C4563   1.408   1_655  A
C4563      C4564   1.403       .  A
C4563      C4570   1.511       .  S
C4564      C4565   1.411       .  A
C4564      H4569   1.083       .  S
C4565      C4566   1.430       .  A
C4566      C4567   1.515   1_455  S
C4567      F4571   1.383       .  S
C4567      F4572   1.382   1_655  S
C4567      F4573   1.381       .  S
C4570      F4574   1.380       .  S
C4570      F4575   1.382       .  S
C4570      F4576   1.384       .  S
C4577      C4578   1.402       .  A
C4577      C4582   1.401       .  A
C4577      H4584   1.084       .  S
C4578      C4579   1.419       .  A
C4579      C4580   1.397       .  A
C4579      C4586   1.520       .  S
C4580      C4581   1.397       .  A
C4580      H4585   1.084       .  S
C4581      C4582   1.414       .  A
C4582      C4583   1.519       .  S
C4583      F4587   1.384       .  S
C4583      F4588   1.382       .  S
C4583      F4589   1.383       .  S
C4586      F4590   1.382       .  S
C4586      F4591   1.383       .  S
C4586      F4592   1.385       .  S
C4593      C4594   1.411       .  A
C4593      C4598   1.409       .  A
C4593      H4600   1.083       .  S
C4594      C4595   1.413       .  A
C4595      C4596   1.396       .  A
C4595      C4602   1.517       .  S
C4596      C4597   1.407       .  A
C4596      H4601   1.084       .  S
C4597      C4598   1.417       .  A
C4598      C4599   1.516       .  S
C4599      F4603   1.383       .  S
C4599      F4604   1.375       .  S
C4599      F4605   1.379       .  S
C4602      F4606   1.383       .  S
C4602      F4607   1.382   1_556  S
C4602      F4608   1.384       .  S
C4609      C4610   1.393       .  A
C4609      C4614   1.389       .  A
C4609      H4616   1.085       .  S
C4610      C4611   1.407       .  A
C4611      C4612   1.397       .  A
C4611      C4618   1.516       .  S
C4612      C4613   1.402       .  A
C4612      H4617   1.084       .  S
C4613      C4614   1.418       .  A
C4614      C4615   1.522       .  S
C4615      F4619   1.385   1_556  S
C4615      F4620   1.380   1_556  S
C4615      F4621   1.378       .  S
C4618      F4622   1.384       .  S
C4618      F4623   1.382       .  S
C4618      F4624   1.384       .  S
C4625      C4626   1.405       .  A
C4625      C4630   1.400       .  A
C4625      H4632   1.086       .  S
C4626      C4627   1.414       .  A
C4627      C4628   1.402       .  A
C4627      C4634   1.518       .  S
C4628      C4629   1.405       .  A
C4628      H4633   1.085       .  S
C4629      C4630   1.414       .  A
C4630      C4631   1.520       .  S
C4631      F4635   1.384       .  S
C4631      F4636   1.383       .  S
C4631      F4637   1.382       .  S
C4634      F4638   1.383       .  S
C4634      F4639   1.383       .  S
C4634      F4640   1.384       .  S
C4641      C4642   1.405       .  A
C4641      C4646   1.400       .  A
C4641      H4648   1.084       .  S
C4642      C4643   1.410       .  A
C4643      C4644   1.397       .  A
C4643      C4650   1.515       .  S
C4644      C4645   1.406       .  A
C4644      H4649   1.085       .  S
C4645      C4646   1.417       .  A
C4646      C4647   1.514       .  S
C4647      F4651   1.385       .  S
C4647      F4652   1.375       .  S
C4647      F4653   1.381       .  S
C4650      F4654   1.384       .  S
C4650      F4655   1.383       .  S
C4650      F4656   1.383       .  S
C4657      C4658   1.439       .  A
C4657      C4662   1.444       .  A
C4657      H4664   1.082       .  S
C4658      C4659   1.423   1_565  A
C4659      C4660   1.452       .  A
C4659      C4666   1.511       .  S
C4660      C4661   1.438   1_545  A
C4660      H4665   1.083       .  S
C4661      C4662   1.420       .  A
C4662      C4663   1.513       .  S
C4663      F4667   1.385       .  S
C4663      F4668   1.383       .  S
C4663      F4669   1.382       .  S
C4666      F4670   1.381       .  S
C4666      F4671   1.384       .  S
C4666      F4672   1.384       .  S
C4673      C4674   1.405       .  A
C4673      C4678   1.410       .  A
C4673      H4680   1.083       .  S
C4674      C4675   1.404       .  A
C4675      C4676   1.394       .  A
C4675      C4682   1.516   1_545  S
C4676      C4677   1.406       .  A
C4676      H4681   1.075       .  S
C4677      C4678   1.414       .  A
C4678      C4679   1.513       .  S
C4679      F4683   1.385       .  S
C4679      F4684   1.383       .  S
C4679      F4685   1.383       .  S
C4682      F4686   1.383       .  S
C4682      F4687   1.383       .  S
C4682      F4688   1.384   1_565  S
C4689      C4690   1.394       .  A
C4689      C4694   1.394       .  A
C4689      H4696   1.084       .  S
C4690      C4691   1.412       .  A
C4691      C4692   1.403       .  A
C4691      C4698   1.520       .  S
C4692      C4693   1.407       .  A
C4692      H4697   1.083       .  S
C4693      C4694   1.422       .  A
C4694      C4695   1.523       .  S
C4695      F4699   1.385       .  S
C4695      F4700   1.383       .  S
C4695      F4701   1.382       .  S
C4698      F4702   1.382       .  S
C4698      F4703   1.381   1_565  S
C4698      F4704   1.385       .  S
C4705      C4706   1.445       .  A
C4705      C4710   1.445       .  A
C4705      H4712   1.080       .  S
C4706      C4707   1.434       .  A
C4707      C4708   1.449   1_545  A
C4707      C4714   1.507   1_545  S
C4708      C4709   1.431   1_565  A
C4708      H4713   1.084       .  S
C4709      C4710   1.418       .  A
C4710      C4711   1.514       .  S
C4711      F4715   1.385       .  S
C4711      F4716   1.383   1_545  S
C4711      F4717   1.382       .  S
C4714      F4718   1.380       .  S
C4714      F4719   1.377   1_565  S
C4714      F4720   1.384   1_565  S
C4721      C4722   1.404       .  A
C4721      C4726   1.404       .  A
C4721      H4728   1.083       .  S
C4722      C4723   1.412       .  A
C4723      C4724   1.404       .  A
C4723      C4730   1.520       .  S
C4724      C4725   1.411       .  A
C4724      H4729   1.083       .  S
C4725      C4726   1.420       .  A
C4726      C4727   1.520       .  S
C4727      F4731   1.383       .  S
C4727      F4732   1.383       .  S
C4727      F4733   1.375       .  S
C4730      F4734   1.381       .  S
C4730      F4735   1.383       .  S
C4730      F4736   1.384       .  S
C4737      C4738   1.410       .  A
C4737      C4742   1.397       .  A
C4737      H4744   1.080       .  S
C4738      C4739   1.417       .  A
C4739      C4740   1.403       .  A
C4739      C4746   1.515       .  S
C4740      C4741   1.403       .  A
C4740      H4745   1.084       .  S
C4741      C4742   1.406       .  A
C4742      C4743   1.519       .  S
C4743      F4747   1.384       .  S
C4743      F4748   1.383       .  S
C4743      F4749   1.379       .  S
C4746      F4750   1.383       .  S
C4746      F4751   1.384       .  S
C4746      F4752   1.383       .  S
C4753      C4754   1.398       .  A
C4753      C4758   1.406       .  A
C4753      H4760   1.082       .  S
C4754      C4755   1.405       .  A
C4755      C4756   1.401       .  A
C4755      C4762   1.519       .  S
C4756      C4757   1.413       .  A
C4756      H4761   1.080       .  S
C4757      C4758   1.428       .  A
C4758      C4759   1.521       .  S
C4759      F4763   1.385       .  S
C4759      F4764   1.382       .  S
C4759      F4765   1.384       .  S
C4762      F4766   1.382       .  S
C4762      F4767   1.384       .  S
C4762      F4768   1.385       .  S
C4769      C4770   1.410       .  A
C4769      C4774   1.443       .  A
C4769      H4776   1.084       .  S
C4770      C4771   1.444       .  A
C4771      C4772   1.445       .  A
C4771      C4778   1.517   1_565  S
C4772      C4773   1.412       .  A
C4772      H4777   1.082   1_565  S
C4773      C4774   1.445       .  A
C4774      C4775   1.514       .  S
C4775      F4779   1.383       .  S
C4775      F4780   1.381       .  S
C4775      F4781   1.382       .  S
C4778      F4782   1.382       .  S
C4778      F4783   1.381       .  S
C4778      F4784   1.385       .  S
C4785      C4786   1.438       .  A
C4785      C4790   1.447       .  A
C4785      H4792   1.082       .  S
C4786      C4787   1.425   1_545  A
C4787      C4788   1.451       .  A
C4787      C4794   1.512       .  S
C4788      C4789   1.435   1_565  A
C4788      H4793   1.081       .  S
C4789      C4790   1.422       .  A
C4790      C4791   1.514       .  S
C4791      F4795   1.385       .  S
C4791      F4796   1.383       .  S
C4791      F4797   1.383       .  S
C4794      F4798   1.379       .  S
C4794      F4799   1.382       .  S
C4794      F4800   1.385       .  S
C4801      C4802   1.408       .  A
C4801      C4806   1.406       .  A
C4801      H4808   1.083       .  S
C4802      C4803   1.412       .  A
C4803      C4804   1.412       .  A
C4803      C4810   1.513       .  S
C4804      C4805   1.407       .  A
C4804      H4809   1.084       .  S
C4805      C4806   1.409       .  A
C4806      C4807   1.518       .  S
C4807      F4811   1.384       .  S
C4807      F4812   1.384       .  S
C4807      F4813   1.382       .  S
C4810      F4814   1.384       .  S
C4810      F4815   1.382       .  S
C4810      F4816   1.385       .  S
C4817      C4818   1.401   1_565  A
C4817      C4822   1.405       .  A
C4817      H4824   1.080       .  S
C4818      C4819   1.410       .  A
C4819      C4820   1.402       .  A
C4819      C4826   1.520       .  S
C4820      C4821   1.407   1_545  A
C4820      H4825   1.084       .  S
C4821      C4822   1.415       .  A
C4822      C4823   1.517       .  S
C4823      F4827   1.384       .  S
C4823      F4828   1.382       .  S
C4823      F4829   1.383       .  S
C4826      F4830   1.382       .  S
C4826      F4831   1.383       .  S
C4826      F4832   1.377       .  S
C4833      C4834   1.401       .  A
C4833      C4838   1.394       .  A
C4833      H4840   1.084       .  S
C4834      C4835   1.425       .  A
C4835      C4836   1.400       .  A
C4835      C4842   1.510       .  S
C4836      C4837   1.393       .  A
C4836      H4841   1.085       .  S
C4837      C4838   1.416       .  A
C4838      C4839   1.515       .  S
C4839      F4843   1.382       .  S
C4839      F4844   1.383       .  S
C4839      F4845   1.376       .  S
C4842      F4846   1.382       .  S
C4842      F4847   1.374       .  S
C4842      F4848   1.382       .  S
C4849      C4850   1.408       .  A
C4849      C4854   1.406       .  A
C4849      H4856   1.084       .  S
C4850      C4851   1.414       .  A
C4851      C4852   1.402       .  A
C4851      C4858   1.520       .  S
C4852      C4853   1.405       .  A
C4852      H4857   1.084       .  S
C4853      C4854   1.410       .  A
C4854      C4855   1.515       .  S
C4855      F4859   1.382       .  S
C4855      F4860   1.384       .  S
C4855      F4861   1.379       .  S
C4858      F4862   1.383       .  S
C4858      F4863   1.384       .  S
C4858      F4864   1.383       .  S
C4865      C4866   1.411       .  A
C4865      C4870   1.410       .  A
C4865      H4872   1.083       .  S
C4866      C4867   1.415       .  A
C4867      C4868   1.396       .  A
C4867      C4874   1.524       .  S
C4868      C4869   1.403       .  A
C4868      H4873   1.080       .  S
C4869      C4870   1.407       .  A
C4870      C4871   1.513       .  S
C4871      F4875   1.385       .  S
C4871      F4876   1.382       .  S
C4871      F4877   1.383       .  S
C4874      F4878   1.382       .  S
C4874      F4879   1.382       .  S
C4874      F4880   1.385       .  S
C4881      C4882   1.407       .  A
C4881      C4886   1.403       .  A
C4881      H4888   1.083       .  S
C4882      C4883   1.423       .  A
C4883      C4884   1.397       .  A
C4883      C4890   1.521       .  S
C4884      C4885   1.395       .  A
C4884      H4889   1.084       .  S
C4885      C4886   1.412       .  A
C4886      C4887   1.519       .  S
C4887      F4891   1.385       .  S
C4887      F4892   1.382       .  S
C4887      F4893   1.383       .  S
C4890      F4894   1.381       .  S
C4890      F4895   1.379       .  S
C4890      F4896   1.385       .  S
C4897      C4898   1.410       .  A
C4897      C4902   1.394       .  A
C4897      H4904   1.083       .  S
C4898      C4899   1.415       .  A
C4899      C4900   1.397       .  A
C4899      C4906   1.515       .  S
C4900      C4901   1.399       .  A
C4900      H4905   1.084       .  S
C4901      C4902   1.403       .  A
C4902      C4903   1.514       .  S
C4903      F4907   1.384       .  S
C4903      F4908   1.384       .  S
C4903      F4909   1.382       .  S
C4906      F4910   1.384       .  S
C4906      F4911   1.382       .  S
C4906      F4912   1.382       .  S
C4913      C4914   1.402       .  A
C4913      C4918   1.406       .  A
C4913      H4920   1.083       .  S
C4914      C4915   1.420       .  A
C4915      C4916   1.410       .  A
C4915      C4922   1.518       .  S
C4916      C4917   1.402       .  A
C4916      H4921   1.083       .  S
C4917      C4918   1.419       .  A
C4918      C4919   1.520       .  S
C4919      F4923   1.385       .  S
C4919      F4924   1.379       .  S
C4919      F4925   1.382       .  S
C4922      F4926   1.382       .  S
C4922      F4927   1.382       .  S
C4922      F4928   1.385       .  S
C4929      C4930   1.422       .  A
C4929      C4934   1.446       .  A
C4929      H4936   1.080       .  S
C4930      C4931   1.431       .  A
C4931      C4932   1.438       .  A
C4931      C4938   1.517       .  S
C4932      C4933   1.418       .  A
C4932      H4937   1.078       .  S
C4933      C4934   1.428       .  A
C4934      C4935   1.513       .  S
C4935      F4939   1.384       .  S
C4935      F4940   1.383       .  S
C4935      F4941   1.383       .  S
C4938      F4942   1.382       .  S
C4938      F4943   1.383       .  S
C4938      F4944   1.383       .  S
C4945      C4946   1.412       .  A
C4945      C4950   1.404       .  A
C4945      H4952   1.082       .  S
C4946      C4947   1.427       .  A
C4947      C4948   1.403       .  A
C4947      C4954   1.521       .  S
C4948      C4949   1.397       .  A
C4948      H4953   1.083       .  S
C4949      C4950   1.411       .  A
C4950      C4951   1.520       .  S
C4951      F4955   1.385       .  S
C4951      F4956   1.382       .  S
C4951      F4957   1.384       .  S
C4954      F4958   1.383       .  S
C4954      F4959   1.383       .  S
C4954      F4960   1.385       .  S
C4961      C4962   1.403       .  A
C4961      C4966   1.401       .  A
C4961      H4968   1.084       .  S
C4962      C4963   1.420       .  A
C4963      C4964   1.404       .  A
C4963      C4970   1.519       .  S
C4964      C4965   1.405       .  A
C4964      H4969   1.083       .  S
C4965      C4966   1.421       .  A
C4966      C4967   1.517       .  S
C4967      F4971   1.385       .  S
C4967      F4972   1.382       .  S
C4967      F4973   1.382       .  S
C4970      F4974   1.382       .  S
C4970      F4975   1.383       .  S
C4970      F4976   1.385       .  S
C4977      C4978   1.397       .  A
C4977      C4982   1.407       .  A
C4977      H4984   1.083       .  S
C4978      C4979   1.417       .  A
C4979      C4980   1.399       .  A
C4979      C4986   1.512       .  S
C4980      C4981   1.395       .  A
C4980      H4985   1.084       .  S
C4981      C4982   1.425       .  A
C4982      C4983   1.520       .  S
C4983      F4987   1.381       .  S
C4983      F4988   1.382       .  S
C4983      F4989   1.385       .  S
C4986      F4990   1.377       .  S
C4986      F4991   1.383       .  S
C4986      F4992   1.384       .  S
C4993      C4994   1.399       .  A
C4993      C4998   1.391       .  A
C4993      H5000   1.084       .  S
C4994      C4995   1.422       .  A
C4995      C4996   1.404       .  A
C4995      C5002   1.508       .  S
C4996      C4997   1.396       .  A
C4996      H5001   1.084       .  S
C4997      C4998   1.418       .  A
C4998      C4999   1.514       .  S
C4999      F5003   1.385       .  S
C4999      F5004   1.381       .  S
C4999      F5005   1.368       .  S
C5002      F5006   1.380       .  S
C5002      F5007   1.381       .  S
C5002      F5008   1.383       .  S
C5009      C5010   1.416       .  A
C5009      C5014   1.429       .  A
C5009      H5016   1.077       .  S
C5010      C5011   1.426       .  A
C5011      C5012   1.450       .  A
C5011      C5018   1.512       .  S
C5012      C5013   1.428       .  A
C5012      H5017   1.079       .  S
C5013      C5014   1.426       .  A
C5014      C5015   1.519       .  S
C5015      F5019   1.383       .  S
C5015      F5020   1.382       .  S
C5015      F5021   1.384       .  S
C5018      F5022   1.383       .  S
C5018      F5023   1.383       .  S
C5018      F5024   1.384       .  S
C5025      C5026   1.408       .  A
C5025      C5030   1.412       .  A
C5025      H5032   1.079       .  S
C5026      C5027   1.407       .  A
C5027      C5028   1.394       .  A
C5027      C5034   1.521       .  S
C5028      C5029   1.403       .  A
C5028      H5033   1.074       .  S
C5029      C5030   1.410       .  A
C5030      C5031   1.514       .  S
C5031      F5035   1.384       .  S
C5031      F5036   1.382       .  S
C5031      F5037   1.384       .  S
C5034      F5038   1.382       .  S
C5034      F5039   1.383       .  S
C5034      F5040   1.384       .  S
C5041      C5042   1.403       .  A
C5041      C5046   1.399       .  A
C5041      H5048   1.083       .  S
C5042      C5043   1.411       .  A
C5043      C5044   1.401       .  A
C5043      C5050   1.520       .  S
C5044      C5045   1.408       .  A
C5044      H5049   1.083       .  S
C5045      C5046   1.416       .  A
C5046      C5047   1.521       .  S
C5047      F5051   1.385       .  S
C5047      F5052   1.382       .  S
C5047      F5053   1.383       .  S
C5050      F5054   1.381       .  S
C5050      F5055   1.383       .  S
C5050      F5056   1.385       .  S
C5057      C5058   1.407       .  A
C5057      C5062   1.410       .  A
C5057      H5064   1.084       .  S
C5058      C5059   1.417       .  A
C5059      C5060   1.406       .  A
C5059      C5066   1.519       .  S
C5060      C5061   1.403       .  A
C5060      H5065   1.084       .  S
C5061      C5062   1.409       .  A
C5062      C5063   1.515       .  S
C5063      F5067   1.384       .  S
C5063      F5068   1.383       .  S
C5063      F5069   1.383       .  S
C5066      F5070   1.384       .  S
C5066      F5071   1.383       .  S
C5066      F5072   1.382       .  S
C5073      C5074   1.405       .  A
C5073      C5078   1.403   1_655  A
C5073      H5080   1.080       .  S
C5074      C5075   1.406       .  A
C5075      C5076   1.396       .  A
C5075      C5082   1.508       .  S
C5076      C5077   1.408   1_655  A
C5076      H5081   1.083       .  S
C5077      C5078   1.410       .  A
C5078      C5079   1.511       .  S
C5079      F5083   1.383       .  S
C5079      F5084   1.384       .  S
C5079      F5085   1.382       .  S
C5082      F5086   1.383       .  S
C5082      F5087   1.384       .  S
C5082      F5088   1.384       .  S
C5089      C5090   1.421       .  A
C5089      C5094   1.447       .  A
C5089      H5096   1.078       .  S
C5090      C5091   1.427       .  A
C5091      C5092   1.441       .  A
C5091      C5098   1.515       .  S
C5092      C5093   1.421       .  A
C5092      H5097   1.079       .  S
C5093      C5094   1.430       .  A
C5094      C5095   1.513       .  S
C5095      F5099   1.385       .  S
C5095      F5100   1.383   1_655  S
C5095      F5101   1.383       .  S
C5098      F5102   1.383       .  S
C5098      F5103   1.383       .  S
C5098      F5104   1.384       .  S
C5105      C5106   1.409       .  A
C5105      C5110   1.440       .  A
C5105      H5112   1.084       .  S
C5106      C5107   1.445       .  A
C5107      C5108   1.436       .  A
C5107      C5114   1.517       .  S
C5108      C5109   1.407       .  A
C5108      H5113   1.084       .  S
C5109      C5110   1.443       .  A
C5110      C5111   1.507       .  S
C5111      F5115   1.383       .  S
C5111      F5116   1.384       .  S
C5111      F5117   1.375       .  S
C5114      F5118   1.383       .  S
C5114      F5119   1.377       .  S
C5114      F5120   1.383       .  S
C5121      C5122   1.412       .  A
C5121      C5126   1.399       .  A
C5121      H5128   1.083       .  S
C5122      C5123   1.418       .  A
C5123      C5124   1.400       .  A
C5123      C5130   1.520       .  S
C5124      C5125   1.406       .  A
C5124      H5129   1.084       .  S
C5125      C5126   1.407       .  A
C5126      C5127   1.516       .  S
C5127      F5131   1.385       .  S
C5127      F5132   1.384       .  S
C5127      F5133   1.382       .  S
C5130      F5134   1.383       .  S
C5130      F5135   1.383       .  S
C5130      F5136   1.385       .  S
C5137      C5138   1.403       .  A
C5137      C5142   1.395       .  A
C5137      H5144   1.085       .  S
C5138      C5139   1.410       .  A
C5139      C5140   1.392       .  A
C5139      C5146   1.514   1_455  S
C5140      C5141   1.404       .  A
C5140      H5145   1.084       .  S
C5141      C5142   1.410       .  A
C5142      C5143   1.514       .  S
C5143      F5147   1.384       .  S
C5143      F5148   1.382       .  S
C5143      F5149   1.382       .  S
C5146      F5150   1.380       .  S
C5146      F5151   1.378       .  S
C5146      F5152   1.385       .  S
C5153      C5154   1.407       .  A
C5153      C5158   1.401       .  A
C5153      H5160   1.083       .  S
C5154      C5155   1.418       .  A
C5155      C5156   1.401       .  A
C5155      C5162   1.514       .  S
C5156      C5157   1.399       .  A
C5156      H5161   1.085       .  S
C5157      C5158   1.409       .  A
C5158      C5159   1.516       .  S
C5159      F5163   1.382       .  S
C5159      F5164   1.381       .  S
C5159      F5165   1.381       .  S
C5162      F5166   1.380       .  S
C5162      F5167   1.380       .  S
C5162      F5168   1.383       .  S
C5169      C5170   1.408       .  A
C5169      C5174   1.399       .  A
C5169      H5176   1.082       .  S
C5170      C5171   1.425       .  A
C5171      C5172   1.400       .  A
C5171      C5178   1.525       .  S
C5172      C5173   1.402       .  A
C5172      H5177   1.083       .  S
C5173      C5174   1.417       .  A
C5174      C5175   1.520       .  S
C5175      F5179   1.385       .  S
C5175      F5180   1.380       .  S
C5175      F5181   1.381       .  S
C5178      F5182   1.382       .  S
C5178      F5183   1.383       .  S
C5178      F5184   1.385       .  S
C5185      C5186   1.400       .  A
C5185      C5190   1.394       .  A
C5185      H5192   1.083       .  S
C5186      C5187   1.422       .  A
C5187      C5188   1.393       .  A
C5187      C5194   1.523       .  S
C5188      C5189   1.395       .  A
C5188      H5193   1.084       .  S
C5189      C5190   1.415       .  A
C5190      C5191   1.523       .  S
C5191      F5195   1.380       .  S
C5191      F5196   1.377       .  S
C5191      F5197   1.384       .  S
C5194      F5198   1.383       .  S
C5194      F5199   1.378       .  S
C5194      F5200   1.386       .  S
C5201      C5202   1.403       .  A
C5201      C5206   1.397       .  A
C5201      H5208   1.084       .  S
C5202      C5203   1.419       .  A
C5203      C5204   1.400       .  A
C5203      C5210   1.507       .  S
C5204      C5205   1.402       .  A
C5204      H5209   1.083       .  S
C5205      C5206   1.411       .  A
C5206      C5207   1.510       .  S
C5207      F5211   1.383       .  S
C5207      F5212   1.384       .  S
C5207      F5213   1.383       .  S
C5210      F5214   1.375       .  S
C5210      F5215   1.380       .  S
C5210      F5216   1.385       .  S
C5217      C5218   1.403       .  A
C5217      C5222   1.403       .  A
C5217      H5224   1.082       .  S
C5218      C5219   1.405       .  A
C5219      C5220   1.406       .  A
C5219      C5226   1.515       .  S
C5220      C5221   1.411       .  A
C5220      H5225   1.082       .  S
C5221      C5222   1.409       .  A
C5222      C5223   1.514       .  S
C5223      F5227   1.385       .  S
C5223      F5228   1.383       .  S
C5223      F5229   1.382       .  S
C5226      F5230   1.383       .  S
C5226      F5231   1.383       .  S
C5226      F5232   1.385       .  S
C5233      C5234   1.409       .  A
C5233      C5238   1.397       .  A
C5233      H5240   1.083       .  S
C5234      C5235   1.418       .  A
C5235      C5236   1.408       .  A
C5235      C5242   1.519       .  S
C5236      C5237   1.405       .  A
C5236      H5241   1.084       .  S
C5237      C5238   1.408       .  A
C5238      C5239   1.519       .  S
C5239      F5243   1.385       .  S
C5239      F5244   1.383       .  S
C5239      F5245   1.382       .  S
C5242      F5246   1.383       .  S
C5242      F5247   1.383       .  S
C5242      F5248   1.385       .  S
C5249      C5250   1.419       .  A
C5249      C5254   1.452       .  A
C5249      H5256   1.083       .  S
C5250      C5251   1.448       .  A
C5251      C5252   1.429       .  A
C5251      C5258   1.517       .  S
C5252      C5253   1.404       .  A
C5252      H5257   1.085       .  S
C5253      C5254   1.441       .  A
C5254      C5255   1.507       .  S
C5255      F5259   1.383       .  S
C5255      F5260   1.380       .  S
C5255      F5261   1.380       .  S
C5258      F5262   1.382       .  S
C5258      F5263   1.375       .  S
C5258      F5264   1.383       .  S
C5265      C5266   1.396       .  A
C5265      C5270   1.401       .  A
C5265      H5272   1.084       .  S
C5266      C5267   1.416       .  A
C5267      C5268   1.398       .  A
C5267      C5274   1.521       .  S
C5268      C5269   1.402       .  A
C5268      H5273   1.082       .  S
C5269      C5270   1.418       .  A
C5270      C5271   1.514       .  S
C5271      F5275   1.385       .  S
C5271      F5276   1.380       .  S
C5271      F5277   1.384       .  S
C5274      F5278   1.381       .  S
C5274      F5279   1.382       .  S
C5274      F5280   1.385       .  S
C5281      C5282   1.403       .  A
C5281      C5286   1.401       .  A
C5281      H5288   1.083       .  S
C5282      C5283   1.417       .  A
C5283      C5284   1.393       .  A
C5283      C5290   1.517       .  S
C5284      C5285   1.393       .  A
C5284      H5289   1.084       .  S
C5285      C5286   1.412       .  A
C5286      C5287   1.520       .  S
C5287      F5291   1.384       .  S
C5287      F5292   1.381       .  S
C5287      F5293   1.383       .  S
C5290      F5294   1.381       .  S
C5290      F5295   1.384       .  S
C5290      F5296   1.385       .  S
C5297      C5298   1.404       .  A
C5297      C5302   1.393       .  A
C5297      H5304   1.075       .  S
C5298      C5299   1.423       .  A
C5299      C5300   1.416       .  A
C5299      C5306   1.519       .  S
C5300      C5301   1.411       .  A
C5300      H5305   1.083       .  S
C5301      C5302   1.416       .  A
C5302      C5303   1.519       .  S
C5303      F5307   1.385       .  S
C5303      F5308   1.380       .  S
C5303      F5309   1.375       .  S
C5306      F5310   1.382       .  S
C5306      F5311   1.383       .  S
C5306      F5312   1.386       .  S
C5313      C5314   1.394       .  A
C5313      C5318   1.400       .  A
C5313      H5320   1.084       .  S
C5314      C5315   1.407       .  A
C5315      C5316   1.394       .  A
C5315      C5322   1.519       .  S
C5316      C5317   1.409       .  A
C5316      H5321   1.082       .  S
C5317      C5318   1.421       .  A
C5318      C5319   1.512       .  S
C5319      F5323   1.385       .  S
C5319      F5324   1.376       .  S
C5319      F5325   1.383       .  S
C5322      F5326   1.383       .  S
C5322      F5327   1.380       .  S
C5322      F5328   1.385       .  S
C5329      C5330   1.421       .  A
C5329      C5334   1.441       .  A
C5329      H5336   1.075       .  S
C5330      C5331   1.427       .  A
C5331      C5332   1.447       .  A
C5331      C5338   1.512       .  S
C5332      C5333   1.424       .  A
C5332      H5337   1.077       .  S
C5333      C5334   1.427       .  A
C5334      C5335   1.517       .  S
C5335      F5339   1.384       .  S
C5335      F5340   1.383       .  S
C5335      F5341   1.382       .  S
C5338      F5342   1.383       .  S
C5338      F5343   1.383       .  S
C5338      F5344   1.384       .  S
C5345      C5346   1.401       .  A
C5345      C5350   1.397       .  A
C5345      H5352   1.084       .  S
C5346      C5347   1.407       .  A
C5347      C5348   1.401       .  A
C5347      C5354   1.511       .  S
C5348      C5349   1.408       .  A
C5348      H5353   1.083       .  S
C5349      C5350   1.418       .  A
C5350      C5351   1.516       .  S
C5351      F5355   1.384       .  S
C5351      F5356   1.384       .  S
C5351      F5357   1.383       .  S
C5354      F5358   1.385       .  S
C5354      F5359   1.377       .  S
C5354      F5360   1.384       .  S
C5361      C5362   1.404       .  A
C5361      C5366   1.405       .  A
C5361      H5368   1.083       .  S
C5362      C5363   1.413       .  A
C5363      C5364   1.390       .  A
C5363      C5370   1.522       .  S
C5364      C5365   1.400       .  A
C5364      H5369   1.083       .  S
C5365      C5366   1.416       .  A
C5366      C5367   1.519       .  S
C5367      F5371   1.385       .  S
C5367      F5372   1.382       .  S
C5367      F5373   1.383       .  S
C5370      F5374   1.381       .  S
C5370      F5375   1.384       .  S
C5370      F5376   1.385       .  S
C5377      C5378   1.401       .  A
C5377      C5382   1.408       .  A
C5377      H5384   1.083       .  S
C5378      C5379   1.422       .  A
C5379      C5380   1.408       .  A
C5379      C5386   1.520       .  S
C5380      C5381   1.406       .  A
C5380      H5385   1.084       .  S
C5381      C5382   1.426       .  A
C5382      C5383   1.518       .  S
C5383      F5387   1.385       .  S
C5383      F5388   1.381       .  S
C5383      F5389   1.380       .  S
C5386      F5390   1.384       .  S
C5386      F5391   1.381       .  S
C5386      F5392   1.385       .  S
C5393      C5394   1.411       .  A
C5393      C5398   1.407   1_556  A
C5393      H5400   1.083   1_556  S
C5394      C5395   1.424       .  A
C5395      C5396   1.391       .  A
C5395      C5402   1.516       .  S
C5396      C5397   1.394   1_556  A
C5396      H5401   1.083       .  S
C5397      C5398   1.409       .  A
C5398      C5399   1.517       .  S
C5399      F5403   1.384       .  S
C5399      F5404   1.383       .  S
C5399      F5405   1.384       .  S
C5402      F5406   1.376       .  S
C5402      F5407   1.383       .  S
C5402      F5408   1.384       .  S
C5409      C5410   1.405       .  A
C5409      C5414   1.432       .  A
C5409      H5416   1.085       .  S
C5410      C5411   1.443       .  A
C5411      C5412   1.453       .  A
C5411      C5418   1.508       .  S
C5412      C5413   1.421       .  A
C5412      H5417   1.083       .  S
C5413      C5414   1.444       .  A
C5414      C5415   1.512       .  S
C5415      F5419   1.384       .  S
C5415      F5420   1.372       .  S
C5415      F5421   1.383       .  S
C5418      F5422   1.382       .  S
C5418      F5423   1.380   1_554  S
C5418      F5424   1.384       .  S
C5425      C5426   1.424       .  A
C5425      C5430   1.453       .  A
C5425      H5432   1.080       .  S
C5426      C5427   1.426       .  A
C5427      C5428   1.437       .  A
C5427      C5434   1.515       .  S
C5428      C5429   1.421       .  A
C5428      H5433   1.081       .  S
C5429      C5430   1.431       .  A
C5430      C5431   1.511       .  S
C5431      F5435   1.385       .  S
C5431      F5436   1.383       .  S
C5431      F5437   1.382       .  S
C5434      F5438   1.384       .  S
C5434      F5439   1.379       .  S
C5434      F5440   1.381       .  S
C5441      C5442   1.416       .  A
C5441      C5446   1.398       .  A
C5441      H5448   1.084       .  S
C5442      C5443   1.423       .  A
C5443      C5444   1.400       .  A
C5443      C5450   1.526       .  S
C5444      C5445   1.407       .  A
C5444      H5449   1.082       .  S
C5445      C5446   1.407       .  A
C5446      C5447   1.517       .  S
C5447      F5451   1.380       .  S
C5447      F5452   1.383       .  S
C5447      F5453   1.383       .  S
C5450      F5454   1.377       .  S
C5450      F5455   1.381       .  S
C5450      F5456   1.382       .  S
C5457      C5458   1.400       .  A
C5457      C5462   1.400       .  A
C5457      H5464   1.085       .  S
C5458      C5459   1.415       .  A
C5459      C5460   1.404       .  A
C5459      C5466   1.518       .  S
C5460      C5461   1.408       .  A
C5460      H5465   1.082       .  S
C5461      C5462   1.418       .  A
C5462      C5463   1.515       .  S
C5463      F5467   1.380       .  S
C5463      F5468   1.384       .  S
C5463      F5469   1.383       .  S
C5466      F5470   1.383       .  S
C5466      F5471   1.382       .  S
C5466      F5472   1.385       .  S
