geometry optimzed in LAMMPS
_audit_creation_date              2020-11-30 
_audit_creation_method            'lammps2cif' 
_symmetry_space_group_name_H-M    'P1' 
_symmetry_Int_Tables_number       1 
_symmetry_cell_setting            triclinic 
loop_ 
_symmetry_equiv_pos_as_xyz 
  x,y,z 
_cell_length_a                    37.612014036043156 
_cell_length_b                    21.384627495800494 
_cell_length_c                    39.18683161359897 
_cell_angle_alpha                 90.00082822525812 
_cell_angle_beta                  90.00035038837818 
_cell_angle_gamma                 89.99594311130143 
loop_ 
_atom_site_label 
_atom_site_type_symbol 
_atom_site_fract_x 
_atom_site_fract_y 
_atom_site_fract_z 
_atom_site_charge 
O1          O  0.41608263  0.38995912  0.30844416    -0.78480
O2          O  0.42478490  0.41508555  0.18938552    -0.78500
O3          O  0.42680980  0.28317347  0.27585143    -0.78510
O4          O  0.35216645  0.50426868  0.22393162    -0.78450
O5          O  0.45104250  0.34577423  0.24036859    -0.78580
O6          O  0.39129320  0.50052545  0.26764294    -0.78500
O7          O  0.37149499  0.43507997  0.16902087    -0.78480
O8          O  0.39158909  0.30296327  0.32984077    -0.78520
C9          C  0.41424089  0.34752346  0.33234570     1.11210
C10         C  0.40500000  0.43969268  0.16723873     1.11090
C11         C  0.45425678  0.30211504  0.26112300     1.11230
C12         C  0.37446274  0.53026549  0.24434097     1.11110
O13         O  0.32317477  0.46688594  0.27586541    -0.78480
O14         O  0.39781483  0.24579149  0.22392244    -0.78560
O15         O  0.33391637  0.36011015  0.30846210    -0.78490
O16         O  0.32519928  0.33497465  0.18939438    -0.78470
O17         O  0.37848485  0.31498550  0.16901868    -0.78530
O18         O  0.35841619  0.44710450  0.32985102    -0.78490
O19         O  0.29894700  0.40427868  0.24038133    -0.78450
O20         O  0.35869628  0.24954069  0.26764087    -0.78520
Co21       Co  0.37036528  0.42248091  0.28486961     1.51530
Co22       Co  0.41120747  0.33357722  0.20835685     1.51690
Co23       Co  0.37962716  0.32758597  0.28486694     1.51570
Co24       Co  0.33877648  0.41648497  0.20836381     1.51470
O25         O  0.37499388  0.37503399  0.23985948    -1.40410
C26         C  0.29572743  0.44793105  0.26114021     1.11140
C27         C  0.37552005  0.21979805  0.24433454     1.11230
C28         C  0.33576294  0.40254845  0.33236407     1.11160
C29         C  0.34498035  0.31036261  0.16724617     1.11140
O30         O  0.35227789  0.00437345  0.22381790    -0.78480
O31         O  0.42671526  0.78299023  0.27570089    -0.78500
O32         O  0.41609131  0.88981834  0.30828206    -0.78510
O33         O  0.42479482  0.91488181  0.18924086    -0.78450
O34         O  0.39151456  0.80290471  0.32969225    -0.78580
O35         O  0.37152399  0.93512534  0.16889828    -0.78500
O36         O  0.45099324  0.84551063  0.24020669    -0.78480
O37         O  0.39142581  0.00045097  0.26750242    -0.78520
C38         C  0.37460961  0.03027759  0.24422778     1.11210
C39         C  0.45418098  0.80187382  0.26097773     1.11090
C40         C  0.41421070  0.84739651  0.33218760     1.11230
C41         C  0.40503248  0.93961180  0.16711787     1.11110
O42         O  0.32511402  0.83519235  0.18924844    -0.78480
O43         O  0.33390426  0.86025673  0.30834046    -0.78560
O44         O  0.32324512  0.96705067  0.27574082    -0.78490
O45         O  0.39764186  0.74569266  0.22379809    -0.78470
O46         O  0.35853443  0.74960698  0.26751839    -0.78530
O47         O  0.29894663  0.90454144  0.24024798    -0.78490
O48         O  0.37837955  0.81495690  0.16889118    -0.78450
O49         O  0.35850572  0.94717662  0.32970995    -0.78520
Co50       Co  0.33879055  0.91663611  0.20823389     1.51530
Co51       Co  0.37956963  0.82756999  0.28472397     1.51690
Co52       Co  0.37040186  0.92249414  0.28472528     1.51570
Co53       Co  0.41112741  0.83343205  0.20821578     1.51470
O54         O  0.37496596  0.87502904  0.23971751    -1.40410
C55         C  0.34487139  0.81046604  0.16711878     1.11140
C56         C  0.33580975  0.90269245  0.33224062     1.11230
C57         C  0.29577053  0.94815673  0.26103574     1.11160
C58         C  0.37533220  0.71978376  0.24422855     1.11140
O59         O  0.10231521  0.25429747  0.22403249    -0.78480
O60         O  0.17670551  0.03295736  0.27596420    -0.78500
O61         O  0.16603728  0.13976575  0.30853519    -0.78510
O62         O  0.17482825  0.16475706  0.18944665    -0.78450
O63         O  0.14145624  0.05287288  0.32994754    -0.78580
O64         O  0.12158073  0.18508162  0.16908720    -0.78500
O65         O  0.20095823  0.09546247  0.24044786    -0.78480
O66         O  0.14137384  0.25039023  0.26779245    -0.78520
C67         C  0.12459293  0.28020576  0.24449038     1.11210
C68         C  0.20415879  0.05182054  0.26121114     1.11090
C69         C  0.16415937  0.09735272  0.33244166     1.11230
C70         C  0.15509358  0.18948666  0.16730351     1.11110
O71         O  0.07510655  0.08520944  0.18939205    -0.78480
O72         O  0.08382648  0.11010355  0.30848888    -0.78560
O73         O  0.07321684  0.21697814  0.27594160    -0.78490
O74         O  0.14763756  0.99563216  0.22404212    -0.78470
O75         O  0.10853723  0.99950426  0.26776506    -0.78530
O76         O  0.04894630  0.15454660  0.24039329    -0.78490
O77         O  0.12837874  0.06485095  0.16909139    -0.78450
O78         O  0.10838745  0.19698349  0.32994444    -0.78520
Co79       Co  0.08881574  0.16660861  0.20841269     1.51530
Co80       Co  0.12953729  0.07749882  0.28495377     1.51690
Co81       Co  0.12035187  0.17239387  0.28495823     1.51570
Co82       Co  0.16112035  0.08334246  0.20843902     1.51470
O83         O  0.12495418  0.12495587  0.23993030    -1.40410
C84         C  0.09486508  0.06046811  0.16726875     1.11140
C85         C  0.08568404  0.15249674  0.33240724     1.11230
C86         C  0.04576516  0.19818580  0.26116395     1.11160
C87         C  0.12534962  0.96970087  0.24448069     1.11140
O88         O  0.14765176  0.49559886  0.22398034    -0.78480
O89         O  0.07322316  0.71697445  0.27587585    -0.78500
O90         O  0.08384250  0.61010183  0.30840750    -0.78510
O91         O  0.07513754  0.58519045  0.18936052    -0.78450
O92         O  0.10839981  0.69697214  0.32988025    -0.78580
O93         O  0.12839345  0.56482553  0.16902869    -0.78500
O94         O  0.04898003  0.65449321  0.24034346    -0.78480
O95         O  0.10854235  0.49951951  0.26769300    -0.78520
C96         C  0.12535865  0.46969156  0.24442238     1.11210
C97         C  0.04577473  0.69813623  0.26110566     1.11090
C98         C  0.08569731  0.65248216  0.33233129     1.11230
C99         C  0.09488025  0.56044358  0.16722964     1.11110
O100        O  0.17486543  0.66469353  0.18934483    -0.78480
O101        O  0.16605033  0.63974189  0.30849411    -0.78560
O102        O  0.17671241  0.53294242  0.27590733    -0.78490
O103        O  0.10233972  0.75429496  0.22398347    -0.78470
O104        O  0.14139642  0.75038517  0.26774454    -0.78530
O105        O  0.20099978  0.59536612  0.24036321    -0.78490
O106        O  0.12160115  0.68507619  0.16903241    -0.78450
O107        O  0.14145235  0.55284443  0.32988075    -0.78520
Co108      Co  0.16114639  0.58329590  0.20836398     1.51530
Co109      Co  0.12037160  0.67238598  0.28489805     1.51690
Co110      Co  0.12955466  0.57749523  0.28488600     1.51570
Co111      Co  0.08884558  0.66659448  0.20836322     1.51470
O112        O  0.12499479  0.62495885  0.23986615    -1.40410
C113        C  0.15511401  0.68945640  0.16722268     1.11140
C114        C  0.16415721  0.59731622  0.33239501     1.11230
C115        C  0.20417327  0.55174571  0.26114673     1.11160
C116        C  0.12461021  0.78020738  0.24444906     1.11140
O117        O  0.23351278  0.17781776  0.07976678    -0.78480
O118        O  0.25341403  0.31001763  0.91894347    -0.78500
O119        O  0.23361623  0.37539199  0.01759478    -0.78510
O120        O  0.17398148  0.22053607  0.99031364    -0.78450
O121        O  0.27269647  0.37924143  0.97384849    -0.78580
O122        O  0.19825628  0.15796740  0.02578910    -0.78500
O123        O  0.20015351  0.28988850  0.93933193    -0.78480
O124        O  0.20894269  0.26476007  0.05838516    -0.78520
C125        C  0.21082322  0.22232260  0.08228251     1.11210
C126        C  0.21990662  0.31456038  0.91718483     1.11090
C127        C  0.25040103  0.40517877  0.99428246     1.11230
C128        C  0.17079439  0.17686384  0.01106137     1.11110
O129        O  0.26640612  0.12446765  0.01754486    -0.78480
O130        O  0.32602003  0.27938609  0.99025536    -0.78560
O131        O  0.26659816  0.32198229  0.07976491    -0.78490
O132        O  0.24652798  0.18989949  0.91894372    -0.78470
O133        O  0.29980589  0.21003845  0.93929338    -0.78530
O134        O  0.29113978  0.23505920  0.05832591    -0.78490
O135        O  0.22726850  0.12066119  0.97384707    -0.78450
O136        O  0.30176171  0.34191848  0.02575849    -0.78520
Co137      Co  0.24542628  0.20246619  0.03477990     1.51530
Co138      Co  0.28616241  0.29150144  0.95826663     1.51690
Co139      Co  0.25462124  0.29738292  0.03478811     1.51570
Co140      Co  0.21380657  0.20841406  0.95828871     1.51470
O141        O  0.24999919  0.24994449  0.98977520    -1.40410
C142        C  0.24958318  0.09469984  0.99425122     1.11140
C143        C  0.32921302  0.32304941  0.01100776     1.11230
C144        C  0.28928971  0.27747218  0.08223867     1.11160
C145        C  0.28003493  0.18536092  0.91716233     1.11140
O146        O  0.23344885  0.67784884  0.07964658    -0.78320
O147        O  0.25340827  0.80997785  0.91883131    -0.78500
O148        O  0.23357709  0.87539961  0.01744668    -0.78510
O149        O  0.17392483  0.72051063  0.99017051    -0.78450
O150        O  0.27268847  0.87924179  0.97372791    -0.78580
O151        O  0.19819375  0.65798891  0.02567360    -0.78500
O152        O  0.20013702  0.78983854  0.93919735    -0.78480
O153        O  0.20888649  0.76479407  0.05825958    -0.78520
C154        C  0.21076480  0.72235991  0.08216174     1.11210
C155        C  0.21990256  0.81452507  0.91706537     1.11090
C156        C  0.25039301  0.90519090  0.99415859     1.11230
C157        C  0.17073214  0.67687595  0.01094179     1.11110
O158        O  0.26635817  0.62449568  0.01745602    -0.78480
O159        O  0.32601140  0.77939817  0.99015047    -0.78560
O160        O  0.26651886  0.82205176  0.07962814    -0.78490
O161        O  0.24651199  0.68984001  0.91884618    -0.78470
O162        O  0.29978631  0.71000403  0.93920131    -0.78530
O163        O  0.29106504  0.73510369  0.05821618    -0.78490
O164        O  0.22722608  0.62062129  0.97375751    -0.78450
O165        O  0.30174016  0.84193255  0.02564423    -0.78520
Co166      Co  0.24536474  0.70249256  0.03466384     1.51530
Co167      Co  0.28614613  0.79148314  0.95815848     1.51690
Co168      Co  0.25457493  0.79740590  0.03465866     1.51570
Co169      Co  0.21377646  0.70837382  0.95817175     1.51470
O170        O  0.24996293  0.74993852  0.98965672    -1.40410
C171        C  0.24953310  0.59468751  0.99418167     1.11140
C172        C  0.32920199  0.82306462  0.01090378     1.11230
C173        C  0.28920121  0.77753154  0.08211941     1.11160
C174        C  0.28001853  0.68530134  0.91707536     1.11140
O175        O  0.48342371  0.92797461  0.07966848    -0.78480
O176        O  0.50345314  0.06012672  0.91887732    -0.78500
O177        O  0.48360985  0.12550492  0.01747866    -0.78510
O178        O  0.42395421  0.97060951  0.99018929    -0.78450
O179        O  0.52274245  0.12935745  0.97378022    -0.78580
O180        O  0.44821782  0.90806200  0.02567836    -0.78500
O181        O  0.45018209  0.03999797  0.93924781    -0.78480
O182        O  0.45889003  0.01491666  0.05823626    -0.78520
C183        C  0.46074116  0.97249924  0.08214396     1.11210
C184        C  0.46994653  0.06469020  0.91711742     1.11090
C185        C  0.50042982  0.15529906  0.99419577     1.11230
C186        C  0.42075891  0.92693260  0.01093406     1.11110
O187        O  0.01637543  0.87458579  0.01748929    -0.78480
O188        O  0.07603805  0.02946614  0.99020864    -0.78560
O189        O  0.01651822  0.07214896  0.07968182    -0.78490
O190        O  0.99655322  0.94000471  0.91886975    -0.78470
O191        O  0.04982638  0.96012305  0.93923846    -0.78530
O192        O  0.04107308  0.98519591  0.05829737    -0.78490
O193        O  0.97727173  0.87075728  0.97376239    -0.78450
O194        O  0.05176566  0.09199965  0.02570544    -0.78520
Co195      Co  0.49538249  0.95259017  0.03469697     1.51530
Co196      Co  0.03618998  0.04159766  0.95820506     1.51690
Co197      Co  0.00459710  0.04750788  0.03469588     1.51570
Co198      Co  0.46381664  0.95851470  0.95819689     1.51470
O199        O  0.50000240  0.00004801  0.98969315    -1.40410
C200        C  0.99956568  0.84480368  0.99419214     1.11140
C201        C  0.07922792  0.07310143  0.01098077     1.11230
C202        C  0.03920107  0.02763479  0.08219771     1.11160
C203        C  0.03005834  0.93542690  0.91711089     1.11140
O204        O  0.01645469  0.57216005  0.07971831    -0.78480
O205        O  0.99649278  0.43996094  0.91890805    -0.78500
O206        O  0.01631104  0.37460197  0.01754162    -0.78510
O207        O  0.07595604  0.52946008  0.99024902    -0.78450
O208        O  0.97721249  0.37074619  0.97381153    -0.78580
O209        O  0.05169231  0.59202330  0.02573364    -0.78500
O210        O  0.04975859  0.46009351  0.93928716    -0.78480
O211        O  0.04100681  0.48521590  0.05831770    -0.78520
C212        C  0.03914109  0.52764684  0.08221913     1.11210
C213        C  0.02999899  0.43539358  0.91715451     1.11090
C214        C  0.99951613  0.34481046  0.99423820     1.11230
C215        C  0.07915097  0.57312771  0.01099953     1.11110
O216        O  0.48354071  0.62552754  0.01751097    -0.78480
O217        O  0.42390107  0.47062328  0.99022622    -0.78560
O218        O  0.48335230  0.42801393  0.07972200    -0.78490
O219        O  0.50338590  0.56008443  0.91889905    -0.78470
O220        O  0.45011069  0.53995717  0.93925782    -0.78530
O221        O  0.45881211  0.51494471  0.05829382    -0.78490
O222        O  0.52266221  0.62933379  0.97380011    -0.78450
O223        O  0.44816707  0.40809314  0.02572551    -0.78520
Co224      Co  0.00452118  0.54752532  0.03473447     1.51530
Co225      Co  0.46375207  0.45849366  0.95823144     1.51690
Co226      Co  0.49531536  0.45261221  0.03474104     1.51570
Co227      Co  0.03611560  0.54157576  0.95823793     1.51470
O228        O  0.49992718  0.50005155  0.98973019    -1.40410
C229        C  0.50036001  0.65529738  0.99421689     1.11140
C230        C  0.42071187  0.42696784  0.01098350     1.11230
C231        C  0.46066614  0.47253086  0.08220517     1.11160
C232        C  0.46987912  0.56463335  0.91712494     1.11140
O233        O  0.41604032  0.13996145  0.80826645    -0.78480
O234        O  0.42473339  0.16516137  0.68942097    -0.78500
O235        O  0.42676189  0.03305662  0.77573422    -0.78510
O236        O  0.35212146  0.25420576  0.72373292    -0.78450
O237        O  0.45103698  0.09573247  0.74032652    -0.78580
O238        O  0.39127871  0.25051065  0.76742231    -0.78500
O239        O  0.37145182  0.18486380  0.66894453    -0.78480
O240        O  0.39155387  0.05297034  0.82970481    -0.78520
C241        C  0.41420855  0.09754141  0.83217496     1.11210
C242        C  0.40494792  0.18971086  0.66725975     1.11090
C243        C  0.45422452  0.05199367  0.76103399     1.11230
C244        C  0.37445519  0.28022200  0.74410182     1.11110
O245        O  0.32316678  0.21695602  0.77568333    -0.78480
O246        O  0.39782281  0.99574372  0.72379343    -0.78560
O247        O  0.33388869  0.11011459  0.80827271    -0.78490
O248        O  0.32523181  0.08471038  0.68944528    -0.78470
O249        O  0.37851014  0.06498109  0.66897152    -0.78530
O250        O  0.35837065  0.19714148  0.82967010    -0.78490
O251        O  0.29890770  0.15421949  0.74029666    -0.78450
O252        O  0.35865551  0.99950044  0.76747330    -0.78520
Co253      Co  0.37033712  0.17250953  0.78470646     1.51530
Co254      Co  0.41121608  0.08357560  0.70829628     1.51690
Co255      Co  0.37959472  0.07752842  0.78472947     1.51570
Co256      Co  0.33873858  0.16633673  0.70827325     1.51470
O257        O  0.37497407  0.12498558  0.73975565    -1.40410
C258        C  0.29570775  0.19797220  0.76099363     1.11140
C259        C  0.37548186  0.96975999  0.74416475     1.11230
C260        C  0.33572121  0.15256777  0.83216482     1.11160
C261        C  0.34501424  0.06012298  0.66729526     1.11140
O262        O  0.33388687  0.61006879  0.80819458    -0.78480
O263        O  0.32526911  0.58477714  0.68938060    -0.78500
O264        O  0.32317218  0.71694931  0.77563941    -0.78510
O265        O  0.39785530  0.49575367  0.72372025    -0.78450
O266        O  0.29892936  0.65424819  0.74022700    -0.78580
O267        O  0.35866649  0.49949630  0.76738055    -0.78500
O268        O  0.37854882  0.56503450  0.66891177    -0.78480
O269        O  0.35836196  0.69707334  0.82962790    -0.78520
C270        C  0.33571260  0.65249614  0.83210039     1.11210
C271        C  0.34505377  0.56018228  0.66723636     1.11090
C272        C  0.29571862  0.69798580  0.76093119     1.11230
C273        C  0.37550558  0.46975988  0.74408006     1.11110
O274        O  0.42677505  0.53305502  0.77567234    -0.78480
O275        O  0.35215474  0.75423839  0.72370971    -0.78560
O276        O  0.41603588  0.63991069  0.80823789    -0.78490
O277        O  0.42477457  0.66519471  0.68936388    -0.78470
O278        O  0.37149276  0.68493545  0.66889827    -0.78530
O279        O  0.39153950  0.55289741  0.82963529    -0.78490
O280        O  0.45106683  0.59573877  0.74027632    -0.78450
O281        O  0.39129268  0.75049481  0.76741429    -0.78520
Co282      Co  0.37960230  0.57750716  0.78466144     1.51530
Co283      Co  0.33877370  0.66638684  0.70822101     1.51690
Co284      Co  0.37034247  0.67248203  0.78466420     1.51570
Co285      Co  0.41124994  0.58360276  0.70823781     1.51470
O286        O  0.37500140  0.62500584  0.73969935    -1.40410
C287        C  0.45424446  0.55200145  0.76098708     1.11140
C288        C  0.37447354  0.78023298  0.74410200     1.11230
C289        C  0.41419136  0.59746675  0.83213355     1.11160
C290        C  0.40498967  0.68975936  0.66720539     1.11140
O291        O  0.08387742  0.35997825  0.80831203    -0.78480
O292        O  0.07516143  0.33469272  0.68944398    -0.78500
O293        O  0.07315377  0.46684112  0.77574796    -0.78510
O294        O  0.14776551  0.24565562  0.72377765    -0.78450
O295        O  0.04887224  0.40415039  0.74034961    -0.78580
O296        O  0.10861940  0.24938412  0.76747610    -0.78500
O297        O  0.12844025  0.31496115  0.66897178    -0.78480
O298        O  0.10838008  0.44698336  0.82971721    -0.78520
C299        C  0.08572151  0.40242390  0.83220806     1.11210
C300        C  0.09494312  0.31013833  0.66728050     1.11090
C301        C  0.04568951  0.44790487  0.76104859     1.11230
C302        C  0.12543590  0.21965704  0.74415603     1.11110
O303        O  0.17673528  0.28292239  0.77571931    -0.78480
O304        O  0.10208716  0.50412059  0.72379870    -0.78560
O305        O  0.16602962  0.38978780  0.80829525    -0.78490
O306        O  0.17467035  0.41511134  0.68945527    -0.78470
O307        O  0.12139188  0.43484886  0.66898451    -0.78530
O308        O  0.14154137  0.30278110  0.82970842    -0.78490
O309        O  0.20098981  0.34563208  0.74031747    -0.78450
O310        O  0.14126373  0.50038438  0.76747136    -0.78520
Co311      Co  0.12957099  0.32739211  0.78474294     1.51530
Co312      Co  0.08868838  0.41628311  0.70831367     1.51690
Co313      Co  0.12032248  0.42237255  0.78474673     1.51570
Co314      Co  0.16115649  0.33350375  0.70829917     1.51470
O315        O  0.12492931  0.37488238  0.73978008    -1.40410
C316        C  0.20419142  0.30188512  0.76101675     1.11140
C317        C  0.12442978  0.53011545  0.74416458     1.11230
C318        C  0.16419513  0.34734886  0.83219523     1.11160
C319        C  0.15488806  0.43968601  0.66730133     1.11140
O320        O  0.16603001  0.88978181  0.80819381    -0.78480
O321        O  0.17463697  0.91508159  0.68937304    -0.78500
O322        O  0.17672374  0.78290488  0.77563308    -0.78510
O323        O  0.10206389  0.00414334  0.72374129    -0.78450
O324        O  0.20097047  0.84559808  0.74021977    -0.78580
O325        O  0.14125818  0.00037209  0.76739589    -0.78500
O326        O  0.12135810  0.93486979  0.66891619    -0.78480
O327        O  0.14154403  0.80278735  0.82962613    -0.78520
C328        C  0.16420082  0.84735290  0.83209781     1.11210
C329        C  0.15485506  0.93967164  0.66722477     1.11090
C330        C  0.20417818  0.80186121  0.76092445     1.11230
C331        C  0.12441360  0.03012421  0.74410608     1.11110
O332        O  0.07314308  0.96683562  0.77569095    -0.78480
O333        O  0.14772769  0.74563554  0.72370532    -0.78560
O334        O  0.08387792  0.85998234  0.80824960    -0.78490
O335        O  0.07511738  0.83473271  0.68936313    -0.78470
O336        O  0.12839339  0.81495580  0.66889579    -0.78530
O337        O  0.10839656  0.94698069  0.82964449    -0.78490
O338        O  0.04884499  0.90417254  0.74028726    -0.78450
O339        O  0.10859798  0.74938603  0.76741592    -0.78520
Co340      Co  0.12031535  0.92236574  0.78466929     1.51530
Co341      Co  0.16112000  0.83348040  0.70821697     1.51690
Co342      Co  0.12956088  0.82739091  0.78466540     1.51570
Co343      Co  0.08865833  0.91630793  0.70824656     1.51470
O344        O  0.12490283  0.87487586  0.73970197    -1.40410
C345        C  0.04567180  0.94790523  0.76100163     1.11140
C346        C  0.12541196  0.71964424  0.74410109     1.11230
C347        C  0.08573655  0.90242630  0.83214513     1.11160
C348        C  0.09489497  0.81017420  0.66719704     1.11140
O349        O  0.24666161  0.93979022  0.41916801    -0.78480
O350        O  0.26651446  0.07172349  0.58004759    -0.78500
O351        O  0.32603282  0.02942591  0.49054047    -0.78510
O352        O  0.26639371  0.87437229  0.51788231    -0.78450
O353        O  0.30174203  0.09182697  0.52609007    -0.78580
O354        O  0.22737102  0.87050828  0.47409811    -0.78500
O355        O  0.29107247  0.98488397  0.55853203    -0.78480
O356        O  0.29991885  0.96017718  0.43949383    -0.78520
C357        C  0.28017732  0.93545032  0.41735399     1.11210
C358        C  0.28921344  0.02721310  0.58247152     1.11090
C359        C  0.32920277  0.07304024  0.51132671     1.11230
C360        C  0.24962271  0.84457563  0.49457467     1.11110
O361        O  0.17399601  0.97029052  0.49045786    -0.78480
O362        O  0.23358638  0.12528101  0.51790143    -0.78560
O363        O  0.25343471  0.06006228  0.41921136    -0.78490
O364        O  0.23337583  0.92787476  0.58000303    -0.78470
O365        O  0.20885676  0.01473343  0.55846942    -0.78530
O366        O  0.20017610  0.03964132  0.43952125    -0.78490
O367        O  0.19822619  0.90780718  0.52599557    -0.78450
O368        O  0.27267836  0.12922533  0.47417986    -0.78520
Co369      Co  0.21388333  0.95822048  0.45849270     1.51530
Co370      Co  0.25458867  0.04726201  0.53503059     1.51690
Co371      Co  0.28618495  0.04154430  0.45853834     1.51570
Co372      Co  0.24537422  0.95237355  0.53501097     1.51470
O373        O  0.25002088  0.99984075  0.49000052    -1.40410
C374        C  0.17078368  0.92665517  0.51122242     1.11140
C375        C  0.25038490  0.15511728  0.49462838     1.11230
C376        C  0.21992094  0.06443892  0.41741246     1.11160
C377        C  0.21068194  0.97239824  0.58240544     1.11140
O378        O  0.25336917  0.55995656  0.41921403    -0.78480
O379        O  0.23337986  0.42795028  0.58005187    -0.78500
O380        O  0.17393976  0.47032877  0.49052674    -0.78510
O381        O  0.23356589  0.62531898  0.51789528    -0.78450
O382        O  0.19819097  0.40787292  0.52606912    -0.78580
O383        O  0.27263556  0.62918161  0.47415030    -0.78500
O384        O  0.20884750  0.51480358  0.55852576    -0.78480
O385        O  0.20010553  0.53961471  0.43953732    -0.78520
C386        C  0.21985624  0.56436716  0.41741585     1.11210
C387        C  0.21068828  0.47247461  0.58246581     1.11090
C388        C  0.17074237  0.42670961  0.51130449     1.11230
C389        C  0.25036008  0.65511401  0.49460216     1.11110
O390        O  0.32598340  0.52938330  0.49053909    -0.78480
O391        O  0.26634637  0.37440040  0.51791989    -0.78560
O392        O  0.24656838  0.43970837  0.41921983    -0.78490
O393        O  0.26652614  0.57179824  0.58004117    -0.78470
O394        O  0.29105898  0.48493545  0.55852043    -0.78530
O395        O  0.29982980  0.46005859  0.43954644    -0.78490
O396        O  0.30171825  0.59186034  0.52606193    -0.78450
O397        O  0.22728655  0.37050130  0.47416799    -0.78520
Co398      Co  0.28612426  0.54147317  0.45854369     1.51530
Co399      Co  0.24534392  0.45241944  0.53504656     1.51690
Co400      Co  0.21380496  0.45820722  0.45854328     1.51570
Co401      Co  0.25456461  0.54730810  0.53504069     1.51470
O402        O  0.24996010  0.49984878  0.49002659    -1.40410
C403        C  0.32917125  0.57303461  0.51129983     1.11140
C404        C  0.24955939  0.34458553  0.49462980     1.11230
C405        C  0.28008224  0.43531385  0.41741841     1.11160
C406        C  0.28922093  0.52727738  0.58245297     1.11140
O407        O  0.50338235  0.31006755  0.41915457    -0.78480
O408        O  0.48336120  0.17799776  0.57993769    -0.78500
O409        O  0.42387700  0.22064025  0.49049933    -0.78510
O410        O  0.98359992  0.37547539  0.51777949    -0.78450
O411        O  0.44814843  0.15805934  0.52596770    -0.78580
O412        O  0.02270022  0.37927595  0.47405362    -0.78500
O413        O  0.45885496  0.26493696  0.55846900    -0.78480
O414        O  0.45010058  0.28999476  0.43951961    -0.78520
C415        C  0.46987555  0.31465287  0.41738312     1.11210
C416        C  0.46069408  0.22255655  0.58238724     1.11090
C417        C  0.42068708  0.17698475  0.51125947     1.11230
C418        C  0.00040233  0.40524020  0.49447547     1.11110
O419        O  0.07597148  0.27932194  0.49048157    -0.78480
O420        O  0.51627336  0.12450356  0.51774450    -0.78560
O421        O  0.99644515  0.18995690  0.41914345    -0.78490
O422        O  0.01653835  0.32194523  0.57994630    -0.78470
O423        O  0.04103513  0.23501813  0.55845545    -0.78530
O424        O  0.04972374  0.21000851  0.43951934    -0.78490
O425        O  0.05173249  0.34190841  0.52596487    -0.78450
O426        O  0.47715058  0.12072404  0.47403575    -0.78520
Co427      Co  0.03612224  0.29150290  0.45847930     1.51530
Co428      Co  0.49531605  0.20252748  0.53494833     1.51690
Co429      Co  0.46371610  0.20849821  0.45847879     1.51570
Co430      Co  0.00456401  0.29744094  0.53495604     1.51470
O431        O  0.49992428  0.24999996  0.48995539    -1.40410
C432        C  0.07918355  0.32296412  0.51124567     1.11140
C433        C  0.49945989  0.09475096  0.49444190     1.11230
C434        C  0.02995160  0.18536473  0.41737797     1.11160
C435        C  0.03920309  0.27738169  0.58238447     1.11140
O436        O  0.50334523  0.81001825  0.41902579    -0.78480
O437        O  0.48336862  0.67805738  0.57984605    -0.78500
O438        O  0.42385876  0.72056625  0.49038041    -0.78510
O439        O  0.98356061  0.87547983  0.51765113    -0.78450
O440        O  0.44813999  0.65806890  0.52588683    -0.78580
O441        O  0.02265288  0.87929470  0.47392050    -0.78500
O442        O  0.45884252  0.76496764  0.55836888    -0.78480
O443        O  0.45006561  0.78985942  0.43937290    -0.78520
C444        C  0.46983694  0.81453081  0.41723794     1.11210
C445        C  0.46069580  0.72260454  0.58229654     1.11090
C446        C  0.42067528  0.67694900  0.51116494     1.11230
C447        C  0.00036251  0.90525464  0.49435255     1.11110
O448        O  0.07595523  0.77938624  0.49034516    -0.78480
O449        O  0.51628445  0.62454666  0.51767720    -0.78560
O450        O  0.99644419  0.68985612  0.41905170    -0.78490
O451        O  0.01651719  0.82202963  0.57981664    -0.78470
O452        O  0.04102372  0.73509802  0.55834497    -0.78530
O453        O  0.04971632  0.71002896  0.43940857    -0.78490
O454        O  0.05171353  0.84196344  0.52583072    -0.78450
O455        O  0.47716073  0.62066470  0.47397484    -0.78520
Co456      Co  0.03609074  0.79151887  0.45835327     1.51530
Co457      Co  0.49530641  0.70256894  0.53484945     1.51690
Co458      Co  0.46370846  0.70841111  0.45837468     1.51570
Co459      Co  0.00454504  0.79747488  0.53483397     1.51470
O460        O  0.49990386  0.74999977  0.48984052    -1.40410
C461        C  0.07916772  0.82302252  0.51111248     1.11140
C462        C  0.49947044  0.59473827  0.49439882     1.11230
C463        C  0.02995171  0.68532508  0.41728201     1.11160
C464        C  0.03918438  0.77747343  0.58226694     1.11140
C465        C  0.50104438  0.52803675  0.49380880    -0.11620
C466        C  0.99882289  0.47193963  0.49383766    -0.13170
C467        C  0.50103744  0.02805234  0.49378974    -0.11620
C468        C  0.99880519  0.97195674  0.49375327    -0.13170
C469        C  0.13807906  0.39132709  0.51396909    -0.11620
C470        C  0.11187414  0.35825798  0.51394651    -0.13170
C471        C  0.36181899  0.60847628  0.51393533    -0.11620
C472        C  0.38800369  0.64159895  0.51388829    -0.13170
C473        C  0.13810373  0.89129984  0.51387361    -0.11620
C474        C  0.11187422  0.85828250  0.51383489    -0.13170
C475        C  0.24883412  0.72180480  0.49402823    -0.11620
C476        C  0.25114163  0.77788364  0.49401632    -0.13170
C477        C  0.24882870  0.22180868  0.49406944    -0.11620
C478        C  0.25110154  0.27789299  0.49406766    -0.13170
C479        C  0.36183913  0.10849938  0.51398850    -0.11620
C480        C  0.38801576  0.14163738  0.51396097    -0.13170
C481        C  0.18697376  0.97316074  0.61092640    -0.11620
C482        C  0.17080511  0.96437892  0.63697382    -0.13170
C483        C  0.07895089  0.78551275  0.63692159    -0.11620
C484        C  0.06283755  0.77671781  0.61083830    -0.13170
C485        C  0.18699529  0.47322986  0.61100123    -0.11620
C486        C  0.17083752  0.46441910  0.63705353    -0.13170
C487        C  0.06287134  0.27662070  0.61094360    -0.11620
C488        C  0.07899923  0.28543602  0.63701597    -0.13170
C489        C  0.12603029  0.59682438  0.74346551    -0.11620
C490        C  0.12383003  0.65293243  0.74343929    -0.13170
C491        C  0.12382798  0.15294707  0.74345465    -0.11620
C492        C  0.12601164  0.09683618  0.74343587    -0.13170
C493        C  0.32910333  0.53539500  0.63700741    -0.11620
C494        C  0.31292954  0.52654911  0.61097088    -0.13170
C495        C  0.42092776  0.71448996  0.63694418    -0.11620
C496        C  0.43704166  0.72333976  0.61086706    -0.13170
C497        C  0.48689387  0.51656944  0.76363360    -0.11620
C498        C  0.01304779  0.48336914  0.76365492    -0.13170
C499        C  0.23685194  0.76647991  0.76355378    -0.11620
C500        C  0.26304360  0.73336469  0.76355638    -0.13170
C501        C  0.32906260  0.03534233  0.63705873    -0.11620
C502        C  0.31290272  0.02648945  0.61101113    -0.13170
C503        C  0.43702393  0.22328688  0.61094165    -0.11620
C504        C  0.42089027  0.21444390  0.63700574    -0.13170
C505        C  0.48687147  0.01654781  0.76365360    -0.11620
C506        C  0.01302680  0.98335102  0.76364394    -0.13170
C507        C  0.37605872  0.84694379  0.74343795    -0.11620
C508        C  0.37386974  0.90305266  0.74346557    -0.13170
C509        C  0.37606404  0.34693385  0.74339238    -0.11620
C510        C  0.37389449  0.40304753  0.74338609    -0.13170
C511        C  0.26303779  0.23335209  0.76362798    -0.11620
C512        C  0.23685612  0.26648615  0.76363613    -0.13170
C513        C  0.45393451  0.58926714  0.88682382    -0.11620
C514        C  0.43783453  0.59813104  0.86072953    -0.13170
C515        C  0.06206577  0.40178533  0.86079281    -0.11620
C516        C  0.04595560  0.41069818  0.88687542    -0.13170
C517        C  0.43787409  0.09822584  0.86075066    -0.11620
C518        C  0.45399321  0.08935688  0.88683172    -0.13170
C519        C  0.06209668  0.90179246  0.86074052    -0.11620
C520        C  0.04600265  0.91071817  0.88683023    -0.13170
C521        C  0.00110188  0.77809624  0.99359148    -0.11620
C522        C  0.49881956  0.72200387  0.99360058    -0.13170
C523        C  0.00110011  0.27810543  0.99361121    -0.11620
C524        C  0.49886503  0.22200640  0.99359248    -0.13170
C525        C  0.29596166  0.66065139  0.88677995    -0.11620
C526        C  0.31205974  0.65179616  0.86068538    -0.13170
C527        C  0.18785736  0.84803781  0.86067950    -0.11620
C528        C  0.20395710  0.83917359  0.88677178    -0.13170
C529        C  0.13804713  0.64154078  0.01364088    -0.11620
C530        C  0.11182991  0.60848941  0.01366098    -0.13170
C531        C  0.38808482  0.89153658  0.01358291    -0.11620
C532        C  0.36187796  0.85845062  0.01357265    -0.13170
C533        C  0.29597533  0.16074438  0.88685463    -0.11620
C534        C  0.31207394  0.15189678  0.86075778    -0.13170
C535        C  0.18784364  0.34802512  0.86078925    -0.11620
C536        C  0.20394575  0.33917453  0.88688490    -0.13170
C537        C  0.13812302  0.14148925  0.01371839    -0.11620
C538        C  0.11191148  0.10842896  0.01368916    -0.13170
C539        C  0.24882076  0.47188257  0.99364910    -0.11620
C540        C  0.25107550  0.52797868  0.99360698    -0.13170
C541        C  0.24886353  0.97190064  0.99357701    -0.11620
C542        C  0.25114001  0.02799430  0.99361371    -0.13170
C543        C  0.36186936  0.35845431  0.01365206    -0.11620
C544        C  0.38805277  0.39157523  0.01364428    -0.13170
C545        C  0.17106792  0.71405800  0.13690330    -0.11620
C546        C  0.18714104  0.72296369  0.11078918    -0.13170
C547        C  0.06279181  0.52703006  0.11082182    -0.11620
C548        C  0.07890724  0.53588176  0.13691481    -0.13170
C549        C  0.18779302  0.59788689  0.36101097    -0.11620
C550        C  0.20389226  0.58898182  0.38710859    -0.13170
C551        C  0.06202416  0.65182694  0.36090490    -0.11620
C552        C  0.04590459  0.66068304  0.38698847    -0.13170
C553        C  0.17107555  0.21405271  0.13699264    -0.11620
C554        C  0.18718501  0.22291965  0.11089689    -0.13170
C555        C  0.07891564  0.03590385  0.13693558    -0.11620
C556        C  0.06283251  0.02702824  0.11082240    -0.13170
C557        C  0.12382667  0.90299786  0.24390105    -0.11620
C558        C  0.12613479  0.84691106  0.24389044    -0.13170
C559        C  0.12613883  0.34690407  0.24390394    -0.11620
C560        C  0.12383813  0.40299012  0.24387439    -0.13170
C561        C  0.20394669  0.08906046  0.38711635    -0.11620
C562        C  0.18781897  0.09794405  0.36103526    -0.13170
C563        C  0.06201396  0.15186158  0.36098834    -0.11620
C564        C  0.04589886  0.16072941  0.38707588    -0.13170
C565        C  0.32892111  0.78580958  0.13682357    -0.11620
C566        C  0.31283948  0.77690183  0.11072195    -0.13170
C567        C  0.43708286  0.97314415  0.11072997    -0.11620
C568        C  0.42098128  0.96425861  0.13682151    -0.13170
C569        C  0.48687315  0.76655746  0.26370151    -0.11620
C570        C  0.01309851  0.73351977  0.26374660    -0.13170
C571        C  0.26307268  0.98344156  0.26379957    -0.11620
C572        C  0.23683936  0.01645692  0.26386139    -0.13170
C573        C  0.31220885  0.90210135  0.36088773    -0.11620
C574        C  0.29614254  0.91094933  0.38701322    -0.13170
C575        C  0.45390222  0.83913450  0.38691910    -0.11620
C576        C  0.43783656  0.84801427  0.36080336    -0.13170
C577        C  0.32904737  0.28572383  0.13693167    -0.11620
C578        C  0.31295228  0.27683721  0.11083128    -0.13170
C579        C  0.42092741  0.46430768  0.13691477    -0.11620
C580        C  0.43701480  0.47317590  0.11080757    -0.13170
C581        C  0.01312267  0.23364618  0.26380555    -0.11620
C582        C  0.48693794  0.26677371  0.26378976    -0.13170
C583        C  0.37375906  0.65307439  0.24364342    -0.11620
C584        C  0.37600739  0.59697491  0.24368746    -0.13170
C585        C  0.37619791  0.09698630  0.24363529    -0.11620
C586        C  0.37396621  0.15308824  0.24367754    -0.13170
C587        C  0.23682883  0.51632350  0.26382378    -0.11620
C588        C  0.26303305  0.48323970  0.26381778    -0.13170
C589        C  0.31213582  0.40189129  0.36098781    -0.11620
C590        C  0.29604680  0.41074387  0.38709789    -0.13170
C591        C  0.45393974  0.33930396  0.38707521    -0.11620
C592        C  0.43786757  0.34819048  0.36096292    -0.13170
O593        O  0.91608263  0.38995912  0.30844416    -0.78480
O594        O  0.92478490  0.41508556  0.18938552    -0.78500
O595        O  0.92680980  0.28317347  0.27585143    -0.78510
O596        O  0.85216645  0.50426867  0.22393162    -0.78450
O597        O  0.95104250  0.34577423  0.24036859    -0.78580
O598        O  0.89129320  0.50052545  0.26764294    -0.78500
O599        O  0.87149499  0.43507997  0.16902086    -0.78480
O600        O  0.89158909  0.30296327  0.32984077    -0.78520
C601        C  0.91424089  0.34752346  0.33234570     1.11210
C602        C  0.90500000  0.43969268  0.16723872     1.11090
C603        C  0.95425678  0.30211504  0.26112300     1.11230
C604        C  0.87446274  0.53026549  0.24434097     1.11110
O605        O  0.82317477  0.46688594  0.27586541    -0.78480
O606        O  0.89781483  0.24579149  0.22392244    -0.78560
O607        O  0.83391637  0.36011014  0.30846210    -0.78490
O608        O  0.82519928  0.33497464  0.18939438    -0.78470
O609        O  0.87848485  0.31498550  0.16901868    -0.78530
O610        O  0.85841618  0.44710450  0.32985102    -0.78490
O611        O  0.79894700  0.40427868  0.24038133    -0.78450
O612        O  0.85869628  0.24954069  0.26764087    -0.78520
Co613      Co  0.87036528  0.42248091  0.28486961     1.51530
Co614      Co  0.91120747  0.33357722  0.20835685     1.51690
Co615      Co  0.87962716  0.32758597  0.28486694     1.51570
Co616      Co  0.83877648  0.41648497  0.20836381     1.51470
O617        O  0.87499388  0.37503399  0.23985948    -1.40410
C618        C  0.79572743  0.44793105  0.26114020     1.11140
C619        C  0.87552005  0.21979805  0.24433454     1.11230
C620        C  0.83576293  0.40254845  0.33236407     1.11160
C621        C  0.84498036  0.31036261  0.16724617     1.11140
O622        O  0.85227789  0.00437345  0.22381789    -0.78480
O623        O  0.92671526  0.78299023  0.27570089    -0.78500
O624        O  0.91609131  0.88981834  0.30828206    -0.78510
O625        O  0.92479482  0.91488181  0.18924085    -0.78450
O626        O  0.89151456  0.80290471  0.32969225    -0.78580
O627        O  0.87152398  0.93512533  0.16889828    -0.78500
O628        O  0.95099324  0.84551063  0.24020669    -0.78480
O629        O  0.89142581  0.00045097  0.26750242    -0.78520
C630        C  0.87460961  0.03027759  0.24422778     1.11210
C631        C  0.95418098  0.80187382  0.26097773     1.11090
C632        C  0.91421070  0.84739651  0.33218760     1.11230
C633        C  0.90503248  0.93961179  0.16711787     1.11110
O634        O  0.82511401  0.83519234  0.18924844    -0.78480
O635        O  0.83390426  0.86025673  0.30834046    -0.78560
O636        O  0.82324512  0.96705067  0.27574082    -0.78490
O637        O  0.89764186  0.74569266  0.22379809    -0.78470
O638        O  0.85853443  0.74960698  0.26751839    -0.78530
O639        O  0.79894663  0.90454144  0.24024798    -0.78490
O640        O  0.87837955  0.81495690  0.16889118    -0.78450
O641        O  0.85850572  0.94717662  0.32970995    -0.78520
Co642      Co  0.83879055  0.91663611  0.20823389     1.51530
Co643      Co  0.87956963  0.82756999  0.28472397     1.51690
Co644      Co  0.87040187  0.92249414  0.28472528     1.51570
Co645      Co  0.91112741  0.83343205  0.20821578     1.51470
O646        O  0.87496596  0.87502904  0.23971751    -1.40410
C647        C  0.84487138  0.81046604  0.16711878     1.11140
C648        C  0.83580976  0.90269245  0.33224062     1.11230
C649        C  0.79577053  0.94815673  0.26103574     1.11160
C650        C  0.87533220  0.71978376  0.24422854     1.11140
O651        O  0.60231521  0.25429747  0.22403248    -0.78480
O652        O  0.67670551  0.03295736  0.27596420    -0.78500
O653        O  0.66603728  0.13976575  0.30853519    -0.78510
O654        O  0.67482825  0.16475706  0.18944665    -0.78450
O655        O  0.64145623  0.05287288  0.32994753    -0.78580
O656        O  0.62158073  0.18508162  0.16908720    -0.78500
O657        O  0.70095823  0.09546247  0.24044786    -0.78480
O658        O  0.64137384  0.25039023  0.26779244    -0.78520
C659        C  0.62459293  0.28020576  0.24449037     1.11210
C660        C  0.70415879  0.05182055  0.26121114     1.11090
C661        C  0.66415937  0.09735272  0.33244166     1.11230
C662        C  0.65509359  0.18948666  0.16730351     1.11110
O663        O  0.57510655  0.08520943  0.18939205    -0.78480
O664        O  0.58382648  0.11010355  0.30848888    -0.78560
O665        O  0.57321684  0.21697813  0.27594160    -0.78490
O666        O  0.64763756  0.99563216  0.22404212    -0.78470
O667        O  0.60853723  0.99950426  0.26776506    -0.78530
O668        O  0.54894630  0.15454659  0.24039329    -0.78490
O669        O  0.62837875  0.06485095  0.16909139    -0.78450
O670        O  0.60838745  0.19698350  0.32994443    -0.78520
Co671      Co  0.58881574  0.16660860  0.20841269     1.51530
Co672      Co  0.62953729  0.07749882  0.28495376     1.51690
Co673      Co  0.62035187  0.17239387  0.28495823     1.51570
Co674      Co  0.66112035  0.08334246  0.20843902     1.51470
O675        O  0.62495418  0.12495587  0.23993029    -1.40410
C676        C  0.59486508  0.06046810  0.16726875     1.11140
C677        C  0.58568404  0.15249674  0.33240724     1.11230
C678        C  0.54576516  0.19818579  0.26116395     1.11160
C679        C  0.62534963  0.96970087  0.24448068     1.11140
O680        O  0.64765176  0.49559886  0.22398033    -0.78480
O681        O  0.57322316  0.71697445  0.27587585    -0.78500
O682        O  0.58384250  0.61010183  0.30840750    -0.78510
O683        O  0.57513754  0.58519045  0.18936052    -0.78450
O684        O  0.60839981  0.69697214  0.32988025    -0.78580
O685        O  0.62839344  0.56482553  0.16902869    -0.78500
O686        O  0.54898003  0.65449321  0.24034346    -0.78480
O687        O  0.60854235  0.49951951  0.26769299    -0.78520
C688        C  0.62535865  0.46969156  0.24442237     1.11210
C689        C  0.54577473  0.69813623  0.26110565     1.11090
C690        C  0.58569731  0.65248216  0.33233129     1.11230
C691        C  0.59488025  0.56044358  0.16722963     1.11110
O692        O  0.67486543  0.66469353  0.18934483    -0.78480
O693        O  0.66605033  0.63974189  0.30849411    -0.78560
O694        O  0.67671241  0.53294242  0.27590733    -0.78490
O695        O  0.60233972  0.75429495  0.22398347    -0.78470
O696        O  0.64139641  0.75038517  0.26774453    -0.78530
O697        O  0.70099978  0.59536612  0.24036320    -0.78490
O698        O  0.62160114  0.68507618  0.16903240    -0.78450
O699        O  0.64145235  0.55284442  0.32988074    -0.78520
Co700      Co  0.66114639  0.58329591  0.20836398     1.51530
Co701      Co  0.62037160  0.67238597  0.28489805     1.51690
Co702      Co  0.62955466  0.57749523  0.28488600     1.51570
Co703      Co  0.58884558  0.66659448  0.20836322     1.51470
O704        O  0.62499479  0.62495885  0.23986615    -1.40410
C705        C  0.65511400  0.68945640  0.16722268     1.11140
C706        C  0.66415721  0.59731622  0.33239500     1.11230
C707        C  0.70417327  0.55174571  0.26114672     1.11160
C708        C  0.62461020  0.78020738  0.24444906     1.11140
O709        O  0.73351278  0.17781776  0.07976678    -0.78480
O710        O  0.75341403  0.31001763  0.91894347    -0.78500
O711        O  0.73361623  0.37539199  0.01759479    -0.78510
O712        O  0.67398148  0.22053606  0.99031364    -0.78450
O713        O  0.77269647  0.37924143  0.97384849    -0.78580
O714        O  0.69825628  0.15796740  0.02578910    -0.78500
O715        O  0.70015351  0.28988850  0.93933193    -0.78480
O716        O  0.70894270  0.26476007  0.05838516    -0.78520
C717        C  0.71082322  0.22232260  0.08228251     1.11210
C718        C  0.71990662  0.31456038  0.91718483     1.11090
C719        C  0.75040103  0.40517876  0.99428246     1.11230
C720        C  0.67079440  0.17686384  0.01106137     1.11110
O721        O  0.76640613  0.12446765  0.01754486    -0.78480
O722        O  0.82602003  0.27938609  0.99025535    -0.78560
O723        O  0.76659817  0.32198229  0.07976491    -0.78490
O724        O  0.74652798  0.18989949  0.91894372    -0.78470
O725        O  0.79980589  0.21003845  0.93929338    -0.78530
O726        O  0.79113978  0.23505920  0.05832591    -0.78490
O727        O  0.72726850  0.12066119  0.97384707    -0.78450
O728        O  0.80176171  0.34191847  0.02575849    -0.78520
Co729      Co  0.74542628  0.20246619  0.03477990     1.51530
Co730      Co  0.78616241  0.29150144  0.95826663     1.51690
Co731      Co  0.75462125  0.29738292  0.03478811     1.51570
Co732      Co  0.71380657  0.20841406  0.95828871     1.51470
O733        O  0.74999919  0.24994449  0.98977520    -1.40410
C734        C  0.74958319  0.09469984  0.99425122     1.11140
C735        C  0.82921302  0.32304941  0.01100776     1.11230
C736        C  0.78928972  0.27747218  0.08223867     1.11160
C737        C  0.78003493  0.18536092  0.91716233     1.11140
O738        O  0.73344884  0.67784884  0.07964658    -0.78320
O739        O  0.75340827  0.80997785  0.91883131    -0.78500
O740        O  0.73357709  0.87539961  0.01744668    -0.78510
O741        O  0.67392483  0.72051063  0.99017051    -0.78450
O742        O  0.77268847  0.87924178  0.97372791    -0.78580
O743        O  0.69819375  0.65798890  0.02567360    -0.78500
O744        O  0.70013702  0.78983854  0.93919735    -0.78480
O745        O  0.70888649  0.76479407  0.05825957    -0.78520
C746        C  0.71076480  0.72235991  0.08216174     1.11210
C747        C  0.71990257  0.81452507  0.91706537     1.11090
C748        C  0.75039301  0.90519090  0.99415859     1.11230
C749        C  0.67073214  0.67687594  0.01094178     1.11110
O750        O  0.76635817  0.62449568  0.01745602    -0.78480
O751        O  0.82601140  0.77939817  0.99015047    -0.78560
O752        O  0.76651886  0.82205176  0.07962814    -0.78490
O753        O  0.74651199  0.68984001  0.91884617    -0.78470
O754        O  0.79978631  0.71000403  0.93920131    -0.78530
O755        O  0.79106503  0.73510368  0.05821618    -0.78490
O756        O  0.72722609  0.62062128  0.97375751    -0.78450
O757        O  0.80174016  0.84193254  0.02564423    -0.78520
Co758      Co  0.74536474  0.70249256  0.03466384     1.51530
Co759      Co  0.78614613  0.79148313  0.95815848     1.51690
Co760      Co  0.75457493  0.79740590  0.03465866     1.51570
Co761      Co  0.71377646  0.70837381  0.95817174     1.51470
O762        O  0.74996293  0.74993852  0.98965672    -1.40410
C763        C  0.74953310  0.59468751  0.99418167     1.11140
C764        C  0.82920199  0.82306462  0.01090379     1.11230
C765        C  0.78920120  0.77753154  0.08211941     1.11160
C766        C  0.78001854  0.68530134  0.91707536     1.11140
O767        O  0.98342371  0.92797462  0.07966847    -0.78480
O768        O  0.00345314  0.06012672  0.91887732    -0.78500
O769        O  0.98360985  0.12550493  0.01747865    -0.78510
O770        O  0.92395421  0.97060950  0.99018929    -0.78450
O771        O  0.02274245  0.12935745  0.97378022    -0.78580
O772        O  0.94821782  0.90806200  0.02567836    -0.78500
O773        O  0.95018209  0.03999797  0.93924781    -0.78480
O774        O  0.95889003  0.01491667  0.05823625    -0.78520
C775        C  0.96074116  0.97249924  0.08214396     1.11210
C776        C  0.96994652  0.06469020  0.91711742     1.11090
C777        C  0.00042982  0.15529906  0.99419576     1.11230
C778        C  0.92075891  0.92693260  0.01093406     1.11110
O779        O  0.51637543  0.87458579  0.01748929    -0.78480
O780        O  0.57603805  0.02946614  0.99020864    -0.78560
O781        O  0.51651823  0.07214895  0.07968183    -0.78490
O782        O  0.49655322  0.94000471  0.91886976    -0.78470
O783        O  0.54982638  0.96012305  0.93923847    -0.78530
O784        O  0.54107309  0.98519590  0.05829736    -0.78490
O785        O  0.47727173  0.87075728  0.97376239    -0.78450
O786        O  0.55176566  0.09199965  0.02570545    -0.78520
Co787      Co  0.99538249  0.95259017  0.03469697     1.51530
Co788      Co  0.53618998  0.04159766  0.95820506     1.51690
Co789      Co  0.50459710  0.04750788  0.03469588     1.51570
Co790      Co  0.96381664  0.95851470  0.95819689     1.51470
O791        O  0.00000239  0.00004801  0.98969315    -1.40410
C792        C  0.49956568  0.84480368  0.99419214     1.11140
C793        C  0.57922792  0.07310143  0.01098077     1.11230
C794        C  0.53920107  0.02763478  0.08219771     1.11160
C795        C  0.53005835  0.93542690  0.91711089     1.11140
O796        O  0.51645469  0.57216005  0.07971831    -0.78480
O797        O  0.49649278  0.43996094  0.91890805    -0.78500
O798        O  0.51631104  0.37460197  0.01754162    -0.78510
O799        O  0.57595604  0.52946008  0.99024902    -0.78450
O800        O  0.47721249  0.37074619  0.97381153    -0.78580
O801        O  0.55169231  0.59202330  0.02573363    -0.78500
O802        O  0.54975859  0.46009351  0.93928716    -0.78480
O803        O  0.54100681  0.48521590  0.05831770    -0.78520
C804        C  0.53914109  0.52764684  0.08221913     1.11210
C805        C  0.52999899  0.43539358  0.91715451     1.11090
C806        C  0.49951613  0.34481046  0.99423820     1.11230
C807        C  0.57915096  0.57312771  0.01099953     1.11110
O808        O  0.98354071  0.62552754  0.01751097    -0.78480
O809        O  0.92390107  0.47062328  0.99022622    -0.78560
O810        O  0.98335230  0.42801393  0.07972200    -0.78490
O811        O  0.00338591  0.56008443  0.91889905    -0.78470
O812        O  0.95011070  0.53995718  0.93925782    -0.78530
O813        O  0.95881211  0.51494471  0.05829382    -0.78490
O814        O  0.02266221  0.62933379  0.97380011    -0.78450
O815        O  0.94816708  0.40809314  0.02572551    -0.78520
Co816      Co  0.50452118  0.54752532  0.03473447     1.51530
Co817      Co  0.96375207  0.45849366  0.95823143     1.51690
Co818      Co  0.99531536  0.45261221  0.03474104     1.51570
Co819      Co  0.53611560  0.54157576  0.95823793     1.51470
O820        O  0.99992718  0.50005156  0.98973019    -1.40410
C821        C  0.00036001  0.65529738  0.99421689     1.11140
C822        C  0.92071188  0.42696784  0.01098350     1.11230
C823        C  0.96066614  0.47253086  0.08220517     1.11160
C824        C  0.96987912  0.56463335  0.91712493     1.11140
O825        O  0.91604031  0.13996145  0.80826645    -0.78480
O826        O  0.92473339  0.16516138  0.68942097    -0.78500
O827        O  0.92676189  0.03305663  0.77573422    -0.78510
O828        O  0.85212146  0.25420577  0.72373292    -0.78450
O829        O  0.95103698  0.09573248  0.74032652    -0.78580
O830        O  0.89127871  0.25051065  0.76742231    -0.78500
O831        O  0.87145182  0.18486380  0.66894453    -0.78480
O832        O  0.89155387  0.05297034  0.82970481    -0.78520
C833        C  0.91420854  0.09754141  0.83217495     1.11210
C834        C  0.90494792  0.18971087  0.66725975     1.11090
C835        C  0.95422452  0.05199367  0.76103399     1.11230
C836        C  0.87445519  0.28022201  0.74410182     1.11110
O837        O  0.82316678  0.21695602  0.77568333    -0.78480
O838        O  0.89782281  0.99574373  0.72379343    -0.78560
O839        O  0.83388869  0.11011459  0.80827271    -0.78490
O840        O  0.82523181  0.08471038  0.68944528    -0.78470
O841        O  0.87851014  0.06498110  0.66897151    -0.78530
O842        O  0.85837065  0.19714148  0.82967009    -0.78490
O843        O  0.79890770  0.15421949  0.74029666    -0.78450
O844        O  0.85865551  0.99950044  0.76747330    -0.78520
Co845      Co  0.87033712  0.17250953  0.78470646     1.51530
Co846      Co  0.91121608  0.08357560  0.70829628     1.51690
Co847      Co  0.87959471  0.07752842  0.78472947     1.51570
Co848      Co  0.83873857  0.16633673  0.70827324     1.51470
O849        O  0.87497407  0.12498559  0.73975564    -1.40410
C850        C  0.79570775  0.19797220  0.76099363     1.11140
C851        C  0.87548186  0.96975999  0.74416475     1.11230
C852        C  0.83572120  0.15256777  0.83216482     1.11160
C853        C  0.84501424  0.06012298  0.66729526     1.11140
O854        O  0.83388687  0.61006880  0.80819458    -0.78480
O855        O  0.82526912  0.58477714  0.68938060    -0.78500
O856        O  0.82317219  0.71694931  0.77563941    -0.78510
O857        O  0.89785530  0.49575368  0.72372025    -0.78450
O858        O  0.79892937  0.65424820  0.74022700    -0.78580
O859        O  0.85866649  0.49949630  0.76738055    -0.78500
O860        O  0.87854882  0.56503451  0.66891177    -0.78480
O861        O  0.85836196  0.69707334  0.82962790    -0.78520
C862        C  0.83571261  0.65249615  0.83210038     1.11210
C863        C  0.84505377  0.56018228  0.66723636     1.11090
C864        C  0.79571862  0.69798580  0.76093119     1.11230
C865        C  0.87550558  0.46975988  0.74408005     1.11110
O866        O  0.92677506  0.53305503  0.77567233    -0.78480
O867        O  0.85215475  0.75423839  0.72370971    -0.78560
O868        O  0.91603588  0.63991069  0.80823789    -0.78490
O869        O  0.92477457  0.66519472  0.68936387    -0.78470
O870        O  0.87149276  0.68493545  0.66889827    -0.78530
O871        O  0.89153951  0.55289741  0.82963529    -0.78490
O872        O  0.95106684  0.59573878  0.74027632    -0.78450
O873        O  0.89129268  0.75049482  0.76741429    -0.78520
Co874      Co  0.87960230  0.57750716  0.78466144     1.51530
Co875      Co  0.83877370  0.66638684  0.70822101     1.51690
Co876      Co  0.87034248  0.67248203  0.78466420     1.51570
Co877      Co  0.91124994  0.58360276  0.70823780     1.51470
O878        O  0.87500140  0.62500585  0.73969935    -1.40410
C879        C  0.95424446  0.55200145  0.76098708     1.11140
C880        C  0.87447355  0.78023298  0.74410200     1.11230
C881        C  0.91419137  0.59746676  0.83213354     1.11160
C882        C  0.90498967  0.68975936  0.66720539     1.11140
O883        O  0.58387742  0.35997825  0.80831203    -0.78480
O884        O  0.57516143  0.33469272  0.68944398    -0.78500
O885        O  0.57315377  0.46684113  0.77574796    -0.78510
O886        O  0.64776551  0.24565562  0.72377765    -0.78450
O887        O  0.54887224  0.40415039  0.74034961    -0.78580
O888        O  0.60861940  0.24938413  0.76747610    -0.78500
O889        O  0.62844025  0.31496116  0.66897179    -0.78480
O890        O  0.60838008  0.44698336  0.82971721    -0.78520
C891        C  0.58572151  0.40242390  0.83220806     1.11210
C892        C  0.59494312  0.31013833  0.66728050     1.11090
C893        C  0.54568951  0.44790487  0.76104860     1.11230
C894        C  0.62543590  0.21965704  0.74415604     1.11110
O895        O  0.67673528  0.28292239  0.77571932    -0.78480
O896        O  0.60208716  0.50412059  0.72379871    -0.78560
O897        O  0.66602962  0.38978780  0.80829525    -0.78490
O898        O  0.67467035  0.41511134  0.68945527    -0.78470
O899        O  0.62139188  0.43484886  0.66898451    -0.78530
O900        O  0.64154136  0.30278110  0.82970842    -0.78490
O901        O  0.70098981  0.34563209  0.74031748    -0.78450
O902        O  0.64126373  0.50038438  0.76747136    -0.78520
Co903      Co  0.62957099  0.32739212  0.78474294     1.51530
Co904      Co  0.58868838  0.41628312  0.70831367     1.51690
Co905      Co  0.62032248  0.42237255  0.78474673     1.51570
Co906      Co  0.66115649  0.33350376  0.70829917     1.51470
O907        O  0.62492931  0.37488238  0.73978008    -1.40410
C908        C  0.70419142  0.30188513  0.76101676     1.11140
C909        C  0.62442978  0.53011545  0.74416458     1.11230
C910        C  0.66419513  0.34734886  0.83219523     1.11160
C911        C  0.65488806  0.43968601  0.66730133     1.11140
O912        O  0.66603001  0.88978181  0.80819381    -0.78480
O913        O  0.67463697  0.91508160  0.68937304    -0.78500
O914        O  0.67672375  0.78290489  0.77563308    -0.78510
O915        O  0.60206389  0.00414334  0.72374129    -0.78450
O916        O  0.70097048  0.84559808  0.74021977    -0.78580
O917        O  0.64125818  0.00037210  0.76739589    -0.78500
O918        O  0.62135810  0.93486979  0.66891619    -0.78480
O919        O  0.64154403  0.80278735  0.82962613    -0.78520
C920        C  0.66420083  0.84735290  0.83209781     1.11210
C921        C  0.65485506  0.93967164  0.66722477     1.11090
C922        C  0.70417819  0.80186121  0.76092445     1.11230
C923        C  0.62441360  0.03012421  0.74410608     1.11110
O924        O  0.57314308  0.96683562  0.77569096    -0.78480
O925        O  0.64772770  0.74563554  0.72370532    -0.78560
O926        O  0.58387792  0.85998234  0.80824960    -0.78490
O927        O  0.57511739  0.83473271  0.68936313    -0.78470
O928        O  0.62839339  0.81495580  0.66889579    -0.78530
O929        O  0.60839656  0.94698069  0.82964449    -0.78490
O930        O  0.54884499  0.90417254  0.74028727    -0.78450
O931        O  0.60859799  0.74938603  0.76741593    -0.78520
Co932      Co  0.62031535  0.92236574  0.78466929     1.51530
Co933      Co  0.66112000  0.83348041  0.70821697     1.51690
Co934      Co  0.62956089  0.82739091  0.78466540     1.51570
Co935      Co  0.58865833  0.91630793  0.70824656     1.51470
O936        O  0.62490283  0.87487587  0.73970197    -1.40410
C937        C  0.54567180  0.94790522  0.76100164     1.11140
C938        C  0.62541197  0.71964424  0.74410109     1.11230
C939        C  0.58573655  0.90242630  0.83214513     1.11160
C940        C  0.59489498  0.81017421  0.66719704     1.11140
O941        O  0.74666161  0.93979021  0.41916801    -0.78480
O942        O  0.76651446  0.07172349  0.58004759    -0.78500
O943        O  0.82603282  0.02942591  0.49054047    -0.78510
O944        O  0.76639371  0.87437229  0.51788231    -0.78450
O945        O  0.80174203  0.09182697  0.52609007    -0.78580
O946        O  0.72737102  0.87050827  0.47409811    -0.78500
O947        O  0.79107247  0.98488397  0.55853203    -0.78480
O948        O  0.79991886  0.96017718  0.43949383    -0.78520
C949        C  0.78017733  0.93545032  0.41735399     1.11210
C950        C  0.78921344  0.02721310  0.58247152     1.11090
C951        C  0.82920277  0.07304025  0.51132670     1.11230
C952        C  0.74962271  0.84457563  0.49457467     1.11110
O953        O  0.67399601  0.97029052  0.49045786    -0.78480
O954        O  0.73358638  0.12528101  0.51790143    -0.78560
O955        O  0.75343471  0.06006228  0.41921136    -0.78490
O956        O  0.73337583  0.92787477  0.58000303    -0.78470
O957        O  0.70885676  0.01473343  0.55846942    -0.78530
O958        O  0.70017610  0.03964132  0.43952124    -0.78490
O959        O  0.69822619  0.90780718  0.52599557    -0.78450
O960        O  0.77267835  0.12922533  0.47417986    -0.78520
Co961      Co  0.71388333  0.95822048  0.45849270     1.51530
Co962      Co  0.75458867  0.04726201  0.53503059     1.51690
Co963      Co  0.78618495  0.04154430  0.45853834     1.51570
Co964      Co  0.74537422  0.95237355  0.53501097     1.51470
O965        O  0.75002088  0.99984075  0.49000052    -1.40410
C966        C  0.67078369  0.92665516  0.51122242     1.11140
C967        C  0.75038490  0.15511728  0.49462838     1.11230
C968        C  0.71992094  0.06443891  0.41741246     1.11160
C969        C  0.71068194  0.97239824  0.58240544     1.11140
O970        O  0.75336917  0.55995657  0.41921403    -0.78480
O971        O  0.73337986  0.42795028  0.58005187    -0.78500
O972        O  0.67393976  0.47032877  0.49052675    -0.78510
O973        O  0.73356589  0.62531898  0.51789528    -0.78450
O974        O  0.69819097  0.40787292  0.52606912    -0.78580
O975        O  0.77263556  0.62918161  0.47415030    -0.78500
O976        O  0.70884751  0.51480358  0.55852576    -0.78480
O977        O  0.70010553  0.53961470  0.43953732    -0.78520
C978        C  0.71985624  0.56436716  0.41741585     1.11210
C979        C  0.71068828  0.47247461  0.58246581     1.11090
C980        C  0.67074237  0.42670961  0.51130450     1.11230
C981        C  0.75036007  0.65511401  0.49460216     1.11110
O982        O  0.82598340  0.52938330  0.49053908    -0.78480
O983        O  0.76634637  0.37440040  0.51791989    -0.78560
O984        O  0.74656838  0.43970836  0.41921983    -0.78490
O985        O  0.76652614  0.57179824  0.58004117    -0.78470
O986        O  0.79105898  0.48493545  0.55852043    -0.78530
O987        O  0.79982980  0.46005859  0.43954644    -0.78490
O988        O  0.80171825  0.59186034  0.52606193    -0.78450
O989        O  0.72728655  0.37050130  0.47416799    -0.78520
Co990      Co  0.78612426  0.54147317  0.45854369     1.51530
Co991      Co  0.74534392  0.45241944  0.53504656     1.51690
Co992      Co  0.71380496  0.45820722  0.45854328     1.51570
Co993      Co  0.75456461  0.54730810  0.53504069     1.51470
O994        O  0.74996010  0.49984879  0.49002659    -1.40410
C995        C  0.82917125  0.57303462  0.51129983     1.11140
C996        C  0.74955939  0.34458553  0.49462980     1.11230
C997        C  0.78008224  0.43531385  0.41741841     1.11160
C998        C  0.78922094  0.52727738  0.58245297     1.11140
O999        O  0.00338235  0.31006755  0.41915457    -0.78480
O1000       O  0.98336120  0.17799777  0.57993769    -0.78500
O1001       O  0.92387700  0.22064025  0.49049933    -0.78510
O1002       O  0.48359992  0.37547538  0.51777949    -0.78450
O1003       O  0.94814842  0.15805934  0.52596770    -0.78580
O1004       O  0.52270023  0.37927595  0.47405362    -0.78500
O1005       O  0.95885496  0.26493696  0.55846900    -0.78480
O1006       O  0.95010058  0.28999477  0.43951961    -0.78520
C1007       C  0.96987554  0.31465287  0.41738312     1.11210
C1008       C  0.96069408  0.22255656  0.58238724     1.11090
C1009       C  0.92068708  0.17698476  0.51125946     1.11230
C1010       C  0.50040233  0.40524020  0.49447547     1.11110
O1011       O  0.57597148  0.27932194  0.49048157    -0.78480
O1012       O  0.01627335  0.12450356  0.51774449    -0.78560
O1013       O  0.49644515  0.18995690  0.41914345    -0.78490
O1014       O  0.51653835  0.32194523  0.57994631    -0.78470
O1015       O  0.54103513  0.23501813  0.55845546    -0.78530
O1016       O  0.54972375  0.21000852  0.43951934    -0.78490
O1017       O  0.55173249  0.34190841  0.52596488    -0.78450
O1018       O  0.97715057  0.12072405  0.47403574    -0.78520
Co1019     Co  0.53612224  0.29150290  0.45847930     1.51530
Co1020     Co  0.99531605  0.20252748  0.53494833     1.51690
Co1021     Co  0.96371609  0.20849821  0.45847879     1.51570
Co1022     Co  0.50456401  0.29744093  0.53495604     1.51470
O1023       O  0.99992428  0.24999997  0.48995539    -1.40410
C1024       C  0.57918355  0.32296412  0.51124568     1.11140
C1025       C  0.99945989  0.09475097  0.49444190     1.11230
C1026       C  0.52995160  0.18536473  0.41737797     1.11160
C1027       C  0.53920309  0.27738169  0.58238448     1.11140
O1028       O  0.00334523  0.81001825  0.41902579    -0.78480
O1029       O  0.98336861  0.67805739  0.57984604    -0.78500
O1030       O  0.92385876  0.72056625  0.49038041    -0.78510
O1031       O  0.48356061  0.87547982  0.51765113    -0.78450
O1032       O  0.94813999  0.65806890  0.52588683    -0.78580
O1033       O  0.52265288  0.87929470  0.47392050    -0.78500
O1034       O  0.95884252  0.76496764  0.55836888    -0.78480
O1035       O  0.95006561  0.78985943  0.43937290    -0.78520
C1036       C  0.96983694  0.81453082  0.41723794     1.11210
C1037       C  0.96069580  0.72260454  0.58229653     1.11090
C1038       C  0.92067528  0.67694901  0.51116493     1.11230
C1039       C  0.50036251  0.90525464  0.49435255     1.11110
O1040       O  0.57595523  0.77938624  0.49034516    -0.78480
O1041       O  0.01628445  0.62454666  0.51767720    -0.78560
O1042       O  0.49644419  0.68985611  0.41905170    -0.78490
O1043       O  0.51651719  0.82202963  0.57981664    -0.78470
O1044       O  0.54102372  0.73509802  0.55834497    -0.78530
O1045       O  0.54971632  0.71002896  0.43940856    -0.78490
O1046       O  0.55171353  0.84196343  0.52583072    -0.78450
O1047       O  0.97716073  0.62066470  0.47397484    -0.78520
Co1048     Co  0.53609074  0.79151887  0.45835327     1.51530
Co1049     Co  0.99530641  0.70256894  0.53484944     1.51690
Co1050     Co  0.96370846  0.70841112  0.45837468     1.51570
Co1051     Co  0.50454505  0.79747488  0.53483397     1.51470
O1052       O  0.99990386  0.74999977  0.48984052    -1.40410
C1053       C  0.57916772  0.82302252  0.51111249     1.11140
C1054       C  0.99947044  0.59473828  0.49439882     1.11230
C1055       C  0.52995171  0.68532508  0.41728201     1.11160
C1056       C  0.53918438  0.77747343  0.58226694     1.11140
C1057       C  0.00104438  0.52803675  0.49380880    -0.11620
C1058       C  0.49882289  0.47193963  0.49383767    -0.13170
C1059       C  0.00103743  0.02805234  0.49378974    -0.11620
C1060       C  0.49880519  0.97195673  0.49375327    -0.13170
C1061       C  0.63807906  0.39132709  0.51396909    -0.11620
C1062       C  0.61187414  0.35825798  0.51394651    -0.13170
C1063       C  0.86181899  0.60847628  0.51393533    -0.11620
C1064       C  0.88800369  0.64159896  0.51388829    -0.13170
C1065       C  0.63810373  0.89129984  0.51387361    -0.11620
C1066       C  0.61187423  0.85828250  0.51383489    -0.13170
C1067       C  0.74883412  0.72180480  0.49402823    -0.11620
C1068       C  0.75114164  0.77788364  0.49401632    -0.13170
C1069       C  0.74882870  0.22180868  0.49406944    -0.11620
C1070       C  0.75110154  0.27789299  0.49406767    -0.13170
C1071       C  0.86183912  0.10849938  0.51398850    -0.11620
C1072       C  0.88801575  0.14163738  0.51396097    -0.13170
C1073       C  0.68697376  0.97316074  0.61092641    -0.11620
C1074       C  0.67080511  0.96437892  0.63697382    -0.13170
C1075       C  0.57895090  0.78551275  0.63692159    -0.11620
C1076       C  0.56283755  0.77671781  0.61083831    -0.13170
C1077       C  0.68699529  0.47322986  0.61100123    -0.11620
C1078       C  0.67083752  0.46441910  0.63705353    -0.13170
C1079       C  0.56287134  0.27662070  0.61094360    -0.11620
C1080       C  0.57899923  0.28543602  0.63701597    -0.13170
C1081       C  0.62603029  0.59682438  0.74346551    -0.11620
C1082       C  0.62383004  0.65293244  0.74343930    -0.13170
C1083       C  0.62382798  0.15294707  0.74345465    -0.11620
C1084       C  0.62601164  0.09683618  0.74343587    -0.13170
C1085       C  0.82910334  0.53539500  0.63700741    -0.11620
C1086       C  0.81292954  0.52654911  0.61097088    -0.13170
C1087       C  0.92092776  0.71448996  0.63694418    -0.11620
C1088       C  0.93704166  0.72333976  0.61086706    -0.13170
C1089       C  0.98689387  0.51656944  0.76363359    -0.11620
C1090       C  0.51304779  0.48336914  0.76365492    -0.13170
C1091       C  0.73685194  0.76647991  0.76355378    -0.11620
C1092       C  0.76304360  0.73336470  0.76355638    -0.13170
C1093       C  0.82906260  0.03534233  0.63705873    -0.11620
C1094       C  0.81290272  0.02648945  0.61101113    -0.13170
C1095       C  0.93702393  0.22328689  0.61094164    -0.11620
C1096       C  0.92089027  0.21444391  0.63700574    -0.13170
C1097       C  0.98687147  0.01654782  0.76365360    -0.11620
C1098       C  0.51302680  0.98335101  0.76364394    -0.13170
C1099       C  0.87605872  0.84694379  0.74343795    -0.11620
C1100       C  0.87386975  0.90305267  0.74346556    -0.13170
C1101       C  0.87606404  0.34693385  0.74339238    -0.11620
C1102       C  0.87389449  0.40304754  0.74338609    -0.13170
C1103       C  0.76303779  0.23335209  0.76362798    -0.11620
C1104       C  0.73685612  0.26648615  0.76363613    -0.13170
C1105       C  0.95393451  0.58926714  0.88682382    -0.11620
C1106       C  0.93783454  0.59813104  0.86072952    -0.13170
C1107       C  0.56206576  0.40178533  0.86079281    -0.11620
C1108       C  0.54595559  0.41069818  0.88687542    -0.13170
C1109       C  0.93787409  0.09822584  0.86075066    -0.11620
C1110       C  0.95399321  0.08935688  0.88683171    -0.13170
C1111       C  0.56209669  0.90179246  0.86074052    -0.11620
C1112       C  0.54600265  0.91071817  0.88683023    -0.13170
C1113       C  0.50110188  0.77809624  0.99359148    -0.11620
C1114       C  0.99881956  0.72200387  0.99360058    -0.13170
C1115       C  0.50110011  0.27810543  0.99361122    -0.11620
C1116       C  0.99886503  0.22200640  0.99359248    -0.13170
C1117       C  0.79596166  0.66065139  0.88677995    -0.11620
C1118       C  0.81205975  0.65179617  0.86068538    -0.13170
C1119       C  0.68785737  0.84803782  0.86067950    -0.11620
C1120       C  0.70395711  0.83917359  0.88677178    -0.13170
C1121       C  0.63804713  0.64154078  0.01364087    -0.11620
C1122       C  0.61182991  0.60848941  0.01366098    -0.13170
C1123       C  0.88808482  0.89153658  0.01358291    -0.11620
C1124       C  0.86187796  0.85845062  0.01357265    -0.13170
C1125       C  0.79597533  0.16074438  0.88685463    -0.11620
C1126       C  0.81207394  0.15189678  0.86075778    -0.13170
C1127       C  0.68784364  0.34802512  0.86078926    -0.11620
C1128       C  0.70394575  0.33917453  0.88688491    -0.13170
C1129       C  0.63812302  0.14148925  0.01371839    -0.11620
C1130       C  0.61191148  0.10842896  0.01368916    -0.13170
C1131       C  0.74882076  0.47188257  0.99364910    -0.11620
C1132       C  0.75107550  0.52797867  0.99360698    -0.13170
C1133       C  0.74886353  0.97190063  0.99357701    -0.11620
C1134       C  0.75114001  0.02799430  0.99361371    -0.13170
C1135       C  0.86186936  0.35845431  0.01365206    -0.11620
C1136       C  0.88805277  0.39157524  0.01364428    -0.13170
C1137       C  0.67106792  0.71405800  0.13690330    -0.11620
C1138       C  0.68714103  0.72296369  0.11078918    -0.13170
C1139       C  0.56279181  0.52703006  0.11082182    -0.11620
C1140       C  0.57890724  0.53588175  0.13691481    -0.13170
C1141       C  0.68779302  0.59788689  0.36101097    -0.11620
C1142       C  0.70389226  0.58898182  0.38710858    -0.13170
C1143       C  0.56202416  0.65182694  0.36090490    -0.11620
C1144       C  0.54590459  0.66068305  0.38698847    -0.13170
C1145       C  0.67107556  0.21405271  0.13699264    -0.11620
C1146       C  0.68718502  0.22291965  0.11089689    -0.13170
C1147       C  0.57891565  0.03590385  0.13693558    -0.11620
C1148       C  0.56283252  0.02702823  0.11082240    -0.13170
C1149       C  0.62382667  0.90299786  0.24390105    -0.11620
C1150       C  0.62613479  0.84691106  0.24389043    -0.13170
C1151       C  0.62613883  0.34690406  0.24390393    -0.11620
C1152       C  0.62383813  0.40299012  0.24387438    -0.13170
C1153       C  0.70394669  0.08906046  0.38711635    -0.11620
C1154       C  0.68781897  0.09794405  0.36103526    -0.13170
C1155       C  0.56201396  0.15186158  0.36098834    -0.11620
C1156       C  0.54589887  0.16072941  0.38707588    -0.13170
C1157       C  0.82892111  0.78580957  0.13682357    -0.11620
C1158       C  0.81283947  0.77690183  0.11072195    -0.13170
C1159       C  0.93708285  0.97314416  0.11072997    -0.11620
C1160       C  0.92098128  0.96425861  0.13682150    -0.13170
C1161       C  0.98687315  0.76655746  0.26370151    -0.11620
C1162       C  0.51309851  0.73351976  0.26374660    -0.13170
C1163       C  0.76307268  0.98344156  0.26379957    -0.11620
C1164       C  0.73683936  0.01645692  0.26386139    -0.13170
C1165       C  0.81220885  0.90210135  0.36088773    -0.11620
C1166       C  0.79614255  0.91094934  0.38701322    -0.13170
C1167       C  0.95390223  0.83913451  0.38691909    -0.11620
C1168       C  0.93783656  0.84801428  0.36080336    -0.13170
C1169       C  0.82904737  0.28572383  0.13693167    -0.11620
C1170       C  0.81295229  0.27683721  0.11083128    -0.13170
C1171       C  0.92092741  0.46430768  0.13691477    -0.11620
C1172       C  0.93701480  0.47317590  0.11080757    -0.13170
C1173       C  0.51312267  0.23364617  0.26380555    -0.11620
C1174       C  0.98693794  0.26677371  0.26378976    -0.13170
C1175       C  0.87375906  0.65307439  0.24364342    -0.11620
C1176       C  0.87600739  0.59697491  0.24368746    -0.13170
C1177       C  0.87619791  0.09698630  0.24363529    -0.11620
C1178       C  0.87396621  0.15308824  0.24367753    -0.13170
C1179       C  0.73682883  0.51632350  0.26382378    -0.11620
C1180       C  0.76303305  0.48323970  0.26381778    -0.13170
C1181       C  0.81213582  0.40189129  0.36098781    -0.11620
C1182       C  0.79604680  0.41074387  0.38709789    -0.13170
C1183       C  0.95393973  0.33930396  0.38707520    -0.11620
C1184       C  0.93786757  0.34819048  0.36096292    -0.13170
loop_ 
_geom_bond_atom_site_label_1 
_geom_bond_atom_site_label_2 
_geom_bond_distance 
_geom_bond_site_symmetry_2 
_ccdc_geom_bond_type 
O1            C9   1.306       .  A
O1          Co21   2.072       .  S
O2           C10   1.258       .  A
O2          Co22   1.963       .  S
O3           C11   1.250       .  A
O3          Co23   2.044       .  S
O4           C12   1.285       .  A
O4          Co24   2.037       .  S
O5           C11   1.244       .  A
O5          Co22   1.971       .  S
O6           C12   1.280       .  A
O6          Co21   1.965       .  S
O7           C10   1.266       .  A
O7          Co24   2.012       .  S
O8            C9   1.282       .  A
O8          Co23   1.894       .  S
C9          C592   1.431       .  S
C10         C579   1.431       .  S
C11         C582   1.447       .  S
C12         C584   1.428       .  S
O13          C26   1.250       .  A
O13         Co21   2.044       .  S
O14          C27   1.285       .  A
O14         Co22   2.037       .  S
O15          C28   1.306       .  A
O15         Co23   2.072       .  S
O16          C29   1.258       .  A
O16         Co24   1.963       .  S
O17          C29   1.266       .  A
O17         Co22   2.012       .  S
O18          C28   1.282       .  A
O18         Co21   1.894       .  S
O19          C26   1.244       .  A
O19         Co24   1.971       .  S
O20          C27   1.280       .  A
O20         Co23   1.965       .  S
Co21         O25   2.042       .  S
Co22         O25   2.041       .  S
Co23         O25   2.042       .  S
Co24         O25   2.041       .  S
C26         C588   1.447       .  S
C27         C586   1.428       .  S
C28         C589   1.431       .  S
C29         C577   1.431       .  S
O30          C38   1.285       .  A
O30         Co50   2.037   1_545  S
O31          C39   1.250       .  A
O31         Co51   2.044       .  S
O32          C40   1.306       .  A
O32         Co52   2.072       .  S
O33          C41   1.258       .  A
O33         Co53   1.962       .  S
O34          C40   1.282       .  A
O34         Co51   1.893       .  S
O35          C41   1.266       .  A
O35         Co50   2.012       .  S
O36          C39   1.244       .  A
O36         Co53   1.971       .  S
O37          C38   1.280       .  A
O37         Co52   1.965   1_545  S
C38         C585   1.428       .  S
C39         C569   1.447       .  S
C40         C576   1.431       .  S
C41         C568   1.431       .  S
O42          C55   1.258       .  A
O42         Co50   1.963       .  S
O43          C56   1.306       .  A
O43         Co51   2.072       .  S
O44          C57   1.250       .  A
O44         Co52   2.044       .  S
O45          C58   1.285       .  A
O45         Co53   2.037       .  S
O46          C58   1.280       .  A
O46         Co51   1.965       .  S
O47          C57   1.244       .  A
O47         Co50   1.971       .  S
O48          C55   1.266       .  A
O48         Co53   2.012       .  S
O49          C56   1.282       .  A
O49         Co52   1.894       .  S
Co50         O54   2.041       .  S
Co51         O54   2.042       .  S
Co52         O54   2.042       .  S
Co53         O54   2.041       .  S
C55         C565   1.431       .  S
C56         C573   1.431       .  S
C57         C571   1.447       .  S
C58         C583   1.428       .  S
O59          C67   1.285       .  A
O59         Co79   2.037       .  S
O60          C68   1.250       .  A
O60         Co80   2.044       .  S
O61          C69   1.306       .  A
O61         Co81   2.072       .  S
O62          C70   1.258       .  A
O62         Co82   1.962       .  S
O63          C69   1.282       .  A
O63         Co80   1.894       .  S
O64          C70   1.266       .  A
O64         Co79   2.012       .  S
O65          C68   1.244       .  A
O65         Co82   1.971       .  S
O66          C67   1.280       .  A
O66         Co81   1.965       .  S
C67         C559   1.428       .  S
C68         C572   1.447       .  S
C69         C562   1.431       .  S
C70         C553   1.431       .  S
O71          C84   1.258       .  A
O71         Co79   1.963       .  S
O72          C85   1.306       .  A
O72         Co80   2.072       .  S
O73          C86   1.250       .  A
O73         Co81   2.044       .  S
O74          C87   1.285       .  A
O74         Co82   2.037   1_565  S
O75          C87   1.280       .  A
O75         Co80   1.965   1_565  S
O76          C86   1.244       .  A
O76         Co79   1.971       .  S
O77          C84   1.266       .  A
O77         Co82   2.013       .  S
O78          C85   1.282       .  A
O78         Co81   1.894       .  S
Co79         O83   2.041       .  S
Co80         O83   2.043       .  S
Co81         O83   2.043       .  S
Co82         O83   2.041       .  S
C84         C555   1.431       .  S
C85         C563   1.431       .  S
C86         C581   1.447       .  S
C87         C557   1.428       .  S
O88          C96   1.285       .  A
O88        Co108   2.037       .  S
O89          C97   1.250       .  A
O89        Co109   2.044       .  S
O90          C98   1.306       .  A
O90        Co110   2.072       .  S
O91          C99   1.258       .  A
O91        Co111   1.962       .  S
O92          C98   1.282       .  A
O92        Co109   1.894       .  S
O93          C99   1.266       .  A
O93        Co108   2.012       .  S
O94          C97   1.244       .  A
O94        Co111   1.971       .  S
O95          C96   1.280       .  A
O95        Co110   1.964       .  S
C96         C560   1.428       .  S
C97         C570   1.447       .  S
C98         C551   1.431       .  S
C99         C548   1.431       .  S
O100        C113   1.258       .  A
O100       Co108   1.963       .  S
O101        C114   1.306       .  A
O101       Co109   2.072       .  S
O102        C115   1.250       .  A
O102       Co110   2.044       .  S
O103        C116   1.285       .  A
O103       Co111   2.037       .  S
O104        C116   1.280       .  A
O104       Co109   1.965       .  S
O105        C115   1.244       .  A
O105       Co108   1.971       .  S
O106        C113   1.266       .  A
O106       Co111   2.012       .  S
O107        C114   1.282       .  A
O107       Co110   1.894       .  S
Co108       O112   2.041       .  S
Co109       O112   2.043       .  S
Co110       O112   2.043       .  S
Co111       O112   2.041       .  S
C113        C545   1.431       .  S
C114        C549   1.431       .  S
C115        C587   1.447       .  S
C116        C558   1.428       .  S
O117        C125   1.282       .  A
O117       Co137   1.894       .  S
O118        C126   1.266       .  A
O118       Co138   2.012       .  S
O119        C127   1.280   1_554  A
O119       Co139   1.965       .  S
O120        C128   1.244   1_556  A
O120       Co140   1.971       .  S
O121        C127   1.285       .  A
O121       Co138   2.037       .  S
O122        C128   1.250       .  A
O122       Co137   2.044       .  S
O123        C126   1.258       .  A
O123       Co140   1.962       .  S
O124        C125   1.306       .  A
O124       Co139   2.072       .  S
C125        C554   1.431       .  S
C126        C536   1.431       .  S
C127        C539   1.428       .  S
C128        C537   1.447       .  S
O129        C142   1.280   1_554  A
O129       Co137   1.965       .  S
O130        C143   1.244   1_556  A
O130       Co138   1.971       .  S
O131        C144   1.282       .  A
O131       Co139   1.894       .  S
O132        C145   1.266       .  A
O132       Co140   2.012       .  S
O133        C145   1.258       .  A
O133       Co138   1.962       .  S
O134        C144   1.306       .  A
O134       Co137   2.072       .  S
O135        C142   1.285       .  A
O135       Co140   2.037       .  S
O136        C143   1.250       .  A
O136       Co139   2.044       .  S
Co137       O141   2.042   1_554  S
Co138       O141   2.041       .  S
Co139       O141   2.042   1_554  S
Co140       O141   2.041       .  S
C142        C542   1.428       .  S
C143        C543   1.447       .  S
C144        C578   1.431       .  S
C145        C533   1.431       .  S
O146        C154   1.282       .  A
O146       Co166   1.894       .  S
O147        C155   1.266       .  A
O147       Co167   2.012       .  S
O148        C156   1.280   1_554  A
O148       Co168   1.965       .  S
O149        C157   1.244   1_556  A
O149       Co169   1.971       .  S
O150        C156   1.285       .  A
O150       Co167   2.037       .  S
O151        C157   1.250       .  A
O151       Co166   2.044       .  S
O152        C155   1.258       .  A
O152       Co169   1.962       .  S
O153        C154   1.306       .  A
O153       Co168   2.072       .  S
C154        C546   1.431       .  S
C155        C528   1.431       .  S
C156        C541   1.428       .  S
C157        C529   1.447       .  S
O158        C171   1.280   1_554  A
O158       Co166   1.965       .  S
O159        C172   1.244   1_556  A
O159       Co167   1.971       .  S
O160        C173   1.282       .  A
O160       Co168   1.893       .  S
O161        C174   1.266       .  A
O161       Co169   2.012       .  S
O162        C174   1.258       .  A
O162       Co167   1.962       .  S
O163        C173   1.306       .  A
O163       Co166   2.072       .  S
O164        C171   1.285       .  A
O164       Co169   2.037       .  S
O165        C172   1.250       .  A
O165       Co168   2.044       .  S
Co166       O170   2.042   1_554  S
Co167       O170   2.041       .  S
Co168       O170   2.042   1_554  S
Co169       O170   2.041       .  S
C171        C540   1.428       .  S
C172        C532   1.447       .  S
C173        C566   1.431       .  S
C174        C525   1.431       .  S
O175        C183   1.282       .  A
O175       Co195   1.893       .  S
O176        C184   1.266       .  A
O176       Co788   2.012       .  S
O177        C185   1.280   1_554  A
O177       Co789   1.965       .  S
O178        C186   1.244   1_556  A
O178       Co198   1.971       .  S
O179        C185   1.285       .  A
O179       Co788   2.037       .  S
O180        C186   1.250       .  A
O180       Co195   2.044       .  S
O181        C184   1.258       .  A
O181       Co198   1.962   1_545  S
O182        C183   1.306   1_545  A
O182       Co789   2.072       .  S
C183        C567   1.431       .  S
C184        C518   1.431       .  S
C185        C524   1.428       .  S
C186        C531   1.447       .  S
O187        C200   1.280   1_454  A
O187       Co787   1.965   1_455  S
O188        C201   1.244   1_556  A
O188       Co196   1.971       .  S
O189        C202   1.282       .  A
O189       Co197   1.894       .  S
O190        C203   1.266   1_655  A
O190       Co790   2.012       .  S
O191        C203   1.258       .  A
O191       Co196   1.962   1_565  S
O192        C202   1.306   1_565  A
O192       Co787   2.072   1_455  S
O193        C200   1.285       .  A
O193       Co790   2.037       .  S
O194        C201   1.250       .  A
O194       Co197   2.044       .  S
Co195       O779   1.965       .  S
Co195       O784   2.072       .  S
Co195       O199   2.042   1_564  S
Co196       O768   2.012       .  S
Co196       O771   2.037       .  S
Co196       O791   2.041       .  S
Co197       O769   1.965   1_455  S
Co197       O774   2.072   1_455  S
Co197       O791   2.042   1_554  S
Co198       O782   2.012       .  S
Co198       O785   2.037       .  S
Co198       O199   2.041   1_565  S
O199       Co788   2.041       .  S
O199       Co789   2.042   1_556  S
C200        C521   1.428   1_655  S
C201        C538   1.447       .  S
C202        C556   1.431       .  S
C203        C520   1.431       .  S
O204        C212   1.282       .  A
O204       Co224   1.894       .  S
O205        C213   1.266   1_655  A
O205       Co817   2.012       .  S
O206        C214   1.280   1_454  A
O206       Co818   1.965   1_455  S
O207        C215   1.244   1_556  A
O207       Co227   1.971       .  S
O208        C214   1.285       .  A
O208       Co817   2.037       .  S
O209        C215   1.250       .  A
O209       Co224   2.044       .  S
O210        C213   1.258       .  A
O210       Co227   1.962       .  S
O211        C212   1.306       .  A
O211       Co818   2.072   1_455  S
C212        C547   1.431       .  S
C213        C516   1.431       .  S
C214        C523   1.428   1_655  S
C215        C530   1.447       .  S
O216        C229   1.280   1_554  A
O216       Co816   1.965       .  S
O217        C230   1.244   1_556  A
O217       Co225   1.971       .  S
O218        C231   1.282       .  A
O218       Co226   1.894       .  S
O219        C232   1.266       .  A
O219       Co819   2.012       .  S
O220        C232   1.258       .  A
O220       Co225   1.962       .  S
O221        C231   1.306       .  A
O221       Co816   2.072       .  S
O222        C229   1.285       .  A
O222       Co819   2.037       .  S
O223        C230   1.250       .  A
O223       Co226   2.044       .  S
Co224       O808   1.965   1_455  S
Co224       O813   2.072   1_455  S
Co224       O820   2.042   1_454  S
Co225       O797   2.012       .  S
Co225       O800   2.037       .  S
Co225       O228   2.041       .  S
Co226       O798   1.965       .  S
Co226       O803   2.072       .  S
Co226       O228   2.042   1_554  S
Co227       O811   2.012       .  S
Co227       O814   2.037       .  S
Co227       O820   2.041   1_455  S
O228       Co816   2.042   1_556  S
O228       Co819   2.041       .  S
C229        C522   1.428       .  S
C230        C544   1.447       .  S
C231        C580   1.431       .  S
C232        C513   1.431       .  S
O233        C241   1.306       .  A
O233       Co253   2.072       .  S
O234        C242   1.258       .  A
O234       Co254   1.962       .  S
O235        C243   1.250       .  A
O235       Co255   2.043       .  S
O236        C244   1.285       .  A
O236       Co256   2.037       .  S
O237        C243   1.244       .  A
O237       Co254   1.971       .  S
O238        C244   1.280       .  A
O238       Co253   1.965       .  S
O239        C242   1.266       .  A
O239       Co256   2.012       .  S
O240        C241   1.282       .  A
O240       Co255   1.893       .  S
C241        C517   1.431       .  S
C242        C504   1.430       .  S
C243        C505   1.447       .  S
C244        C509   1.428       .  S
O245        C258   1.250       .  A
O245       Co253   2.043       .  S
O246        C259   1.285       .  A
O246       Co254   2.037   1_565  S
O247        C260   1.306       .  A
O247       Co255   2.072       .  S
O248        C261   1.258       .  A
O248       Co256   1.962       .  S
O249        C261   1.266       .  A
O249       Co254   2.011       .  S
O250        C260   1.282       .  A
O250       Co253   1.893       .  S
O251        C258   1.244       .  A
O251       Co256   1.971       .  S
O252        C259   1.280       .  A
O252       Co255   1.965   1_565  S
Co253       O257   2.041       .  S
Co254       O257   2.040       .  S
Co255       O257   2.041       .  S
Co256       O257   2.040       .  S
C258        C511   1.447       .  S
C259        C508   1.428       .  S
C260        C534   1.431       .  S
C261        C501   1.430       .  S
O262        C270   1.306       .  A
O262       Co282   2.072       .  S
O263        C271   1.258       .  A
O263       Co283   1.962       .  S
O264        C272   1.250       .  A
O264       Co284   2.044       .  S
O265        C273   1.285       .  A
O265       Co285   2.037       .  S
O266        C272   1.244       .  A
O266       Co283   1.971       .  S
O267        C273   1.280       .  A
O267       Co282   1.965       .  S
O268        C271   1.266       .  A
O268       Co285   2.011       .  S
O269        C270   1.282       .  A
O269       Co284   1.893       .  S
C270        C526   1.431       .  S
C271        C493   1.430       .  S
C272        C500   1.447       .  S
C273        C510   1.428       .  S
O274        C287   1.250       .  A
O274       Co282   2.043       .  S
O275        C288   1.285       .  A
O275       Co283   2.037       .  S
O276        C289   1.306       .  A
O276       Co284   2.072       .  S
O277        C290   1.258       .  A
O277       Co285   1.962       .  S
O278        C290   1.266       .  A
O278       Co283   2.012       .  S
O279        C289   1.282       .  A
O279       Co282   1.893       .  S
O280        C287   1.244       .  A
O280       Co285   1.971       .  S
O281        C288   1.280       .  A
O281       Co284   1.965       .  S
Co282       O286   2.041       .  S
Co283       O286   2.040       .  S
Co284       O286   2.041       .  S
Co285       O286   2.040       .  S
C287        C497   1.447       .  S
C288        C507   1.428       .  S
C289        C514   1.431       .  S
C290        C495   1.430       .  S
O291        C299   1.306       .  A
O291       Co311   2.072       .  S
O292        C300   1.258       .  A
O292       Co312   1.962       .  S
O293        C301   1.250       .  A
O293       Co313   2.043       .  S
O294        C302   1.285       .  A
O294       Co314   2.037       .  S
O295        C301   1.244       .  A
O295       Co312   1.971       .  S
O296        C302   1.280       .  A
O296       Co311   1.965       .  S
O297        C300   1.266       .  A
O297       Co314   2.012       .  S
O298        C299   1.282       .  A
O298       Co313   1.893       .  S
C299        C515   1.431       .  S
C300        C488   1.430       .  S
C301        C498   1.447       .  S
C302        C491   1.428       .  S
O303        C316   1.250       .  A
O303       Co311   2.044       .  S
O304        C317   1.285       .  A
O304       Co312   2.037       .  S
O305        C318   1.306       .  A
O305       Co313   2.072       .  S
O306        C319   1.258       .  A
O306       Co314   1.962       .  S
O307        C319   1.266       .  A
O307       Co312   2.011       .  S
O308        C318   1.282       .  A
O308       Co311   1.893       .  S
O309        C316   1.244       .  A
O309       Co314   1.971       .  S
O310        C317   1.280       .  A
O310       Co313   1.965       .  S
Co311       O315   2.041       .  S
Co312       O315   2.040       .  S
Co313       O315   2.041       .  S
Co314       O315   2.040       .  S
C316        C512   1.447       .  S
C317        C489   1.428       .  S
C318        C535   1.431       .  S
C319        C486   1.430       .  S
O320        C328   1.306       .  A
O320       Co340   2.072       .  S
O321        C329   1.258       .  A
O321       Co341   1.962       .  S
O322        C330   1.250       .  A
O322       Co342   2.044       .  S
O323        C331   1.285       .  A
O323       Co343   2.037   1_545  S
O324        C330   1.244       .  A
O324       Co341   1.971       .  S
O325        C331   1.280       .  A
O325       Co340   1.965   1_545  S
O326        C329   1.266       .  A
O326       Co343   2.011       .  S
O327        C328   1.282       .  A
O327       Co342   1.893       .  S
C328        C527   1.431       .  S
C329        C482   1.430       .  S
C330        C499   1.447       .  S
C331        C492   1.428       .  S
O332        C345   1.250       .  A
O332       Co340   2.043       .  S
O333        C346   1.285       .  A
O333       Co341   2.037       .  S
O334        C347   1.306       .  A
O334       Co342   2.072       .  S
O335        C348   1.258       .  A
O335       Co343   1.962       .  S
O336        C348   1.266       .  A
O336       Co341   2.012       .  S
O337        C347   1.282       .  A
O337       Co340   1.893       .  S
O338        C345   1.244       .  A
O338       Co343   1.971       .  S
O339        C346   1.280       .  A
O339       Co342   1.965       .  S
Co340       O344   2.041       .  S
Co341       O344   2.040       .  S
Co342       O344   2.041       .  S
Co343       O344   2.040       .  S
C345        C506   1.447       .  S
C346        C490   1.428       .  S
C347        C519   1.431       .  S
C348        C483   1.430       .  S
O349        C357   1.266       .  A
O349       Co369   2.012       .  S
O350        C358   1.282       .  A
O350       Co370   1.894       .  S
O351        C359   1.244       .  A
O351       Co371   1.971       .  S
O352        C360   1.280       .  A
O352       Co372   1.964       .  S
O353        C359   1.250       .  A
O353       Co370   2.044       .  S
O354        C360   1.285       .  A
O354       Co369   2.037       .  S
O355        C358   1.305   1_565  A
O355       Co372   2.071       .  S
O356        C357   1.258       .  A
O356       Co371   1.962   1_565  S
C357        C574   1.431       .  S
C358        C502   1.430       .  S
C359        C479   1.447       .  S
C360        C476   1.427       .  S
O361        C374   1.244       .  A
O361       Co369   1.971       .  S
O362        C375   1.280       .  A
O362       Co370   1.964       .  S
O363        C376   1.266       .  A
O363       Co371   2.012       .  S
O364        C377   1.282       .  A
O364       Co372   1.894       .  S
O365        C377   1.305   1_545  A
O365       Co370   2.070       .  S
O366        C376   1.258       .  A
O366       Co369   1.962   1_545  S
O367        C374   1.250       .  A
O367       Co372   2.044       .  S
O368        C375   1.285       .  A
O368       Co371   2.037       .  S
Co369       O373   2.041       .  S
Co370       O373   2.042   1_545  S
Co371       O373   2.041   1_545  S
Co372       O373   2.043       .  S
C374        C473   1.447       .  S
C375        C477   1.428       .  S
C376        C561   1.431       .  S
C377        C481   1.430       .  S
O378        C386   1.266       .  A
O378       Co398   2.012       .  S
O379        C387   1.282       .  A
O379       Co399   1.894       .  S
O380        C388   1.244       .  A
O380       Co400   1.971       .  S
O381        C389   1.280       .  A
O381       Co401   1.964       .  S
O382        C388   1.250       .  A
O382       Co399   2.044       .  S
O383        C389   1.285       .  A
O383       Co398   2.037       .  S
O384        C387   1.305       .  A
O384       Co401   2.071       .  S
O385        C386   1.258       .  A
O385       Co400   1.962       .  S
C386        C550   1.431       .  S
C387        C485   1.430       .  S
C388        C469   1.447       .  S
C389        C475   1.427       .  S
O390        C403   1.244       .  A
O390       Co398   1.971       .  S
O391        C404   1.280       .  A
O391       Co399   1.964       .  S
O392        C405   1.266       .  A
O392       Co400   2.012       .  S
O393        C406   1.282       .  A
O393       Co401   1.894       .  S
O394        C406   1.305       .  A
O394       Co399   2.070       .  S
O395        C405   1.258       .  A
O395       Co398   1.962       .  S
O396        C403   1.250       .  A
O396       Co401   2.044       .  S
O397        C404   1.285       .  A
O397       Co400   2.037       .  S
Co398       O402   2.041       .  S
Co399       O402   2.042       .  S
Co400       O402   2.041       .  S
Co401       O402   2.042       .  S
C403        C471   1.447       .  S
C404        C478   1.428       .  S
C405        C590   1.431       .  S
C406        C494   1.430       .  S
O407        C415   1.266       .  A
O407      Co1019   2.012       .  S
O408        C416   1.282       .  A
O408       Co428   1.894       .  S
O409        C417   1.244       .  A
O409       Co429   1.972       .  S
O410        C418   1.280   1_655  A
O410       Co430   1.965   1_655  S
O411        C417   1.250       .  A
O411       Co428   2.043       .  S
O412        C418   1.285       .  A
O412       Co427   2.037       .  S
O413        C416   1.306       .  A
O413      Co1022   2.071       .  S
O414        C415   1.258       .  A
O414       Co429   1.962       .  S
C415        C591   1.431       .  S
C416        C503   1.430       .  S
C417        C480   1.447       .  S
C418        C466   1.428   1_455  S
O419        C432   1.244       .  A
O419       Co427   1.972       .  S
O420        C433   1.280       .  A
O420       Co428   1.965       .  S
O421        C434   1.266   1_655  A
O421      Co1021   2.012       .  S
O422        C435   1.282       .  A
O422       Co430   1.894       .  S
O423        C435   1.306       .  A
O423      Co1020   2.071   1_455  S
O424        C434   1.258       .  A
O424       Co427   1.962       .  S
O425        C432   1.250       .  A
O425       Co430   2.044       .  S
O426        C433   1.285       .  A
O426       Co429   2.037       .  S
Co427       O999   2.012       .  S
Co427      O1023   2.040   1_455  S
Co428      O1015   2.071       .  S
Co428       O431   2.042       .  S
Co429      O1013   2.012       .  S
Co429       O431   2.041       .  S
Co430      O1005   2.071   1_455  S
Co430      O1023   2.042   1_455  S
O431      Co1019   2.040       .  S
O431      Co1022   2.042       .  S
C432        C470   1.447       .  S
C433        C467   1.428       .  S
C434        C564   1.431       .  S
C435        C487   1.430       .  S
O436        C444   1.266       .  A
O436      Co1048   2.012       .  S
O437        C445   1.282       .  A
O437       Co457   1.894       .  S
O438        C446   1.244       .  A
O438       Co458   1.972       .  S
O439        C447   1.280   1_655  A
O439       Co459   1.964   1_655  S
O440        C446   1.250       .  A
O440       Co457   2.044       .  S
O441        C447   1.285       .  A
O441       Co456   2.037       .  S
O442        C445   1.306       .  A
O442      Co1051   2.071       .  S
O443        C444   1.258       .  A
O443       Co458   1.962       .  S
C444        C575   1.431       .  S
C445        C496   1.430       .  S
C446        C472   1.447       .  S
C447        C468   1.428   1_455  S
O448        C461   1.244       .  A
O448       Co456   1.972       .  S
O449        C462   1.280       .  A
O449       Co457   1.964       .  S
O450        C463   1.266   1_655  A
O450      Co1050   2.012       .  S
O451        C464   1.282       .  A
O451       Co459   1.894       .  S
O452        C464   1.306       .  A
O452      Co1049   2.071   1_455  S
O453        C463   1.258       .  A
O453       Co456   1.962       .  S
O454        C461   1.250       .  A
O454       Co459   2.044       .  S
O455        C462   1.285       .  A
O455       Co458   2.037       .  S
Co456      O1028   2.012       .  S
Co456      O1052   2.040   1_455  S
Co457      O1044   2.071       .  S
Co457       O460   2.042       .  S
Co458      O1042   2.012       .  S
Co458       O460   2.041       .  S
Co459      O1034   2.071   1_455  S
Co459      O1052   2.042   1_455  S
O460      Co1048   2.040       .  S
O460      Co1051   2.042       .  S
C461        C474   1.447       .  S
C462        C465   1.428       .  S
C463        C552   1.431       .  S
C464        C484   1.430       .  S
C465       C1058   1.203       .  T
C466       C1057   1.203   1_655  T
C467       C1060   1.203   1_545  T
C468       C1059   1.203   1_665  T
C469        C470   1.213       .  T
C471        C472   1.213       .  T
C473        C474   1.213       .  T
C475        C476   1.202       .  T
C477        C478   1.202       .  T
C479        C480   1.213       .  T
C481        C482   1.203       .  T
C483        C484   1.203       .  T
C485        C486   1.203       .  T
C487        C488   1.203       .  T
C489        C490   1.203       .  T
C491        C492   1.203       .  T
C493        C494   1.203       .  T
C495        C496   1.203       .  T
C497       C1090   1.213       .  T
C498       C1089   1.213   1_455  T
C499        C500   1.213       .  T
C501        C502   1.203       .  T
C503        C504   1.203       .  T
C505       C1098   1.213   1_545  T
C506       C1097   1.213   1_465  T
C507        C508   1.203       .  T
C509        C510   1.203       .  T
C511        C512   1.213       .  T
C513        C514   1.203       .  T
C515        C516   1.203       .  T
C517        C518   1.203       .  T
C519        C520   1.203       .  T
C521       C1114   1.203   1_455  T
C522       C1113   1.203       .  T
C523       C1116   1.203   1_455  T
C524       C1115   1.203       .  T
C525        C526   1.203       .  T
C527        C528   1.203       .  T
C529        C530   1.213       .  T
C531        C532   1.213       .  T
C533        C534   1.203       .  T
C535        C536   1.203       .  T
C537        C538   1.213       .  T
C539        C540   1.203       .  T
C541        C542   1.203   1_565  T
C543        C544   1.213       .  T
C545        C546   1.204       .  T
C547        C548   1.204       .  T
C549        C550   1.204       .  T
C551        C552   1.203       .  T
C553        C554   1.204       .  T
C555        C556   1.204       .  T
C557        C558   1.203       .  T
C559        C560   1.202       .  T
C561        C562   1.204       .  T
C563        C564   1.203       .  T
C565        C566   1.203       .  T
C567        C568   1.203       .  T
C569       C1162   1.213       .  T
C570       C1161   1.213   1_455  T
C571        C572   1.213   1_565  T
C573        C574   1.204       .  T
C575        C576   1.204       .  T
C577        C578   1.204       .  T
C579        C580   1.204       .  T
C581       C1174   1.213   1_455  T
C582       C1173   1.213       .  T
C583        C584   1.203       .  T
C585        C586   1.203       .  T
C587        C588   1.213       .  T
C589        C590   1.204       .  T
C591        C592   1.204       .  T
O593        C601   1.306       .  A
O593       Co613   2.072       .  S
O594        C602   1.258       .  A
O594       Co614   1.963       .  S
O595        C603   1.250       .  A
O595       Co615   2.044       .  S
O596        C604   1.285       .  A
O596       Co616   2.037       .  S
O597        C603   1.244       .  A
O597       Co614   1.971       .  S
O598        C604   1.280       .  A
O598       Co613   1.965       .  S
O599        C602   1.266       .  A
O599       Co616   2.012       .  S
O600        C601   1.282       .  A
O600       Co615   1.894       .  S
C601       C1184   1.431       .  S
C602       C1171   1.431       .  S
C603       C1174   1.447       .  S
C604       C1176   1.428       .  S
O605        C618   1.250       .  A
O605       Co613   2.044       .  S
O606        C619   1.285       .  A
O606       Co614   2.037       .  S
O607        C620   1.306       .  A
O607       Co615   2.072       .  S
O608        C621   1.258       .  A
O608       Co616   1.963       .  S
O609        C621   1.266       .  A
O609       Co614   2.012       .  S
O610        C620   1.282       .  A
O610       Co613   1.894       .  S
O611        C618   1.244       .  A
O611       Co616   1.971       .  S
O612        C619   1.280       .  A
O612       Co615   1.965       .  S
Co613       O617   2.042       .  S
Co614       O617   2.041       .  S
Co615       O617   2.042       .  S
Co616       O617   2.041       .  S
C618       C1180   1.447       .  S
C619       C1178   1.428       .  S
C620       C1181   1.431       .  S
C621       C1169   1.431       .  S
O622        C630   1.285       .  A
O622       Co642   2.037   1_545  S
O623        C631   1.250       .  A
O623       Co643   2.044       .  S
O624        C632   1.306       .  A
O624       Co644   2.072       .  S
O625        C633   1.258       .  A
O625       Co645   1.962       .  S
O626        C632   1.282       .  A
O626       Co643   1.893       .  S
O627        C633   1.266       .  A
O627       Co642   2.012       .  S
O628        C631   1.244       .  A
O628       Co645   1.971       .  S
O629        C630   1.280       .  A
O629       Co644   1.965   1_545  S
C630       C1177   1.428       .  S
C631       C1161   1.447       .  S
C632       C1168   1.431       .  S
C633       C1160   1.431       .  S
O634        C647   1.258       .  A
O634       Co642   1.963       .  S
O635        C648   1.306       .  A
O635       Co643   2.072       .  S
O636        C649   1.250       .  A
O636       Co644   2.044       .  S
O637        C650   1.285       .  A
O637       Co645   2.037       .  S
O638        C650   1.280       .  A
O638       Co643   1.965       .  S
O639        C649   1.244       .  A
O639       Co642   1.971       .  S
O640        C647   1.266       .  A
O640       Co645   2.012       .  S
O641        C648   1.282       .  A
O641       Co644   1.894       .  S
Co642       O646   2.041       .  S
Co643       O646   2.042       .  S
Co644       O646   2.042       .  S
Co645       O646   2.041       .  S
C647       C1157   1.431       .  S
C648       C1165   1.431       .  S
C649       C1163   1.447       .  S
C650       C1175   1.428       .  S
O651        C659   1.285       .  A
O651       Co671   2.037       .  S
O652        C660   1.250       .  A
O652       Co672   2.044       .  S
O653        C661   1.306       .  A
O653       Co673   2.072       .  S
O654        C662   1.258       .  A
O654       Co674   1.962       .  S
O655        C661   1.282       .  A
O655       Co672   1.894       .  S
O656        C662   1.266       .  A
O656       Co671   2.012       .  S
O657        C660   1.244       .  A
O657       Co674   1.971       .  S
O658        C659   1.280       .  A
O658       Co673   1.965       .  S
C659       C1151   1.428       .  S
C660       C1164   1.447       .  S
C661       C1154   1.431       .  S
C662       C1145   1.431       .  S
O663        C676   1.258       .  A
O663       Co671   1.963       .  S
O664        C677   1.306       .  A
O664       Co672   2.072       .  S
O665        C678   1.250       .  A
O665       Co673   2.044       .  S
O666        C679   1.285       .  A
O666       Co674   2.037   1_565  S
O667        C679   1.280       .  A
O667       Co672   1.965   1_565  S
O668        C678   1.244       .  A
O668       Co671   1.971       .  S
O669        C676   1.266       .  A
O669       Co674   2.013       .  S
O670        C677   1.282       .  A
O670       Co673   1.894       .  S
Co671       O675   2.041       .  S
Co672       O675   2.043       .  S
Co673       O675   2.043       .  S
Co674       O675   2.041       .  S
C676       C1147   1.431       .  S
C677       C1155   1.431       .  S
C678       C1173   1.447       .  S
C679       C1149   1.428       .  S
O680        C688   1.285       .  A
O680       Co700   2.037       .  S
O681        C689   1.250       .  A
O681       Co701   2.044       .  S
O682        C690   1.306       .  A
O682       Co702   2.072       .  S
O683        C691   1.258       .  A
O683       Co703   1.962       .  S
O684        C690   1.282       .  A
O684       Co701   1.894       .  S
O685        C691   1.266       .  A
O685       Co700   2.012       .  S
O686        C689   1.244       .  A
O686       Co703   1.971       .  S
O687        C688   1.280       .  A
O687       Co702   1.964       .  S
C688       C1152   1.428       .  S
C689       C1162   1.447       .  S
C690       C1143   1.431       .  S
C691       C1140   1.431       .  S
O692        C705   1.258       .  A
O692       Co700   1.963       .  S
O693        C706   1.306       .  A
O693       Co701   2.072       .  S
O694        C707   1.250       .  A
O694       Co702   2.044       .  S
O695        C708   1.285       .  A
O695       Co703   2.037       .  S
O696        C708   1.280       .  A
O696       Co701   1.965       .  S
O697        C707   1.244       .  A
O697       Co700   1.971       .  S
O698        C705   1.266       .  A
O698       Co703   2.012       .  S
O699        C706   1.282       .  A
O699       Co702   1.894       .  S
Co700       O704   2.041       .  S
Co701       O704   2.043       .  S
Co702       O704   2.043       .  S
Co703       O704   2.041       .  S
C705       C1137   1.431       .  S
C706       C1141   1.431       .  S
C707       C1179   1.447       .  S
C708       C1150   1.428       .  S
O709        C717   1.282       .  A
O709       Co729   1.894       .  S
O710        C718   1.266       .  A
O710       Co730   2.012       .  S
O711        C719   1.280   1_554  A
O711       Co731   1.965       .  S
O712        C720   1.244   1_556  A
O712       Co732   1.971       .  S
O713        C719   1.285       .  A
O713       Co730   2.037       .  S
O714        C720   1.250       .  A
O714       Co729   2.044       .  S
O715        C718   1.258       .  A
O715       Co732   1.962       .  S
O716        C717   1.306       .  A
O716       Co731   2.072       .  S
C717       C1146   1.431       .  S
C718       C1128   1.431       .  S
C719       C1131   1.428       .  S
C720       C1129   1.447       .  S
O721        C734   1.280   1_554  A
O721       Co729   1.965       .  S
O722        C735   1.244   1_556  A
O722       Co730   1.971       .  S
O723        C736   1.282       .  A
O723       Co731   1.894       .  S
O724        C737   1.266       .  A
O724       Co732   2.012       .  S
O725        C737   1.258       .  A
O725       Co730   1.962       .  S
O726        C736   1.306       .  A
O726       Co729   2.072       .  S
O727        C734   1.285       .  A
O727       Co732   2.037       .  S
O728        C735   1.250       .  A
O728       Co731   2.044       .  S
Co729       O733   2.042   1_554  S
Co730       O733   2.041       .  S
Co731       O733   2.042   1_554  S
Co732       O733   2.041       .  S
C734       C1134   1.428       .  S
C735       C1135   1.447       .  S
C736       C1170   1.431       .  S
C737       C1125   1.431       .  S
O738        C746   1.282       .  A
O738       Co758   1.894       .  S
O739        C747   1.266       .  A
O739       Co759   2.012       .  S
O740        C748   1.280   1_554  A
O740       Co760   1.965       .  S
O741        C749   1.244   1_556  A
O741       Co761   1.971       .  S
O742        C748   1.285       .  A
O742       Co759   2.037       .  S
O743        C749   1.250       .  A
O743       Co758   2.044       .  S
O744        C747   1.258       .  A
O744       Co761   1.962       .  S
O745        C746   1.306       .  A
O745       Co760   2.072       .  S
C746       C1138   1.431       .  S
C747       C1120   1.431       .  S
C748       C1133   1.428       .  S
C749       C1121   1.447       .  S
O750        C763   1.280   1_554  A
O750       Co758   1.965       .  S
O751        C764   1.244   1_556  A
O751       Co759   1.971       .  S
O752        C765   1.282       .  A
O752       Co760   1.893       .  S
O753        C766   1.266       .  A
O753       Co761   2.012       .  S
O754        C766   1.258       .  A
O754       Co759   1.962       .  S
O755        C765   1.306       .  A
O755       Co758   2.072       .  S
O756        C763   1.285       .  A
O756       Co761   2.037       .  S
O757        C764   1.250       .  A
O757       Co760   2.044       .  S
Co758       O762   2.042   1_554  S
Co759       O762   2.041       .  S
Co760       O762   2.042   1_554  S
Co761       O762   2.041       .  S
C763       C1132   1.428       .  S
C764       C1124   1.447       .  S
C765       C1158   1.431       .  S
C766       C1117   1.431       .  S
O767        C775   1.282       .  A
O767       Co787   1.893       .  S
O768        C776   1.266   1_455  A
O769        C777   1.280   1_654  A
O770        C778   1.244   1_556  A
O770       Co790   1.971       .  S
O771        C777   1.285       .  A
O772        C778   1.250       .  A
O772       Co787   2.044       .  S
O773        C776   1.258       .  A
O773       Co790   1.962   1_545  S
O774        C775   1.306   1_545  A
C775       C1159   1.431       .  S
C776       C1110   1.431       .  S
C777       C1116   1.428   1_455  S
C778       C1123   1.447       .  S
O779        C792   1.280   1_554  A
O780        C793   1.244   1_556  A
O780       Co788   1.971       .  S
O781        C794   1.282       .  A
O781       Co789   1.894       .  S
O782        C795   1.266       .  A
O783        C795   1.258       .  A
O783       Co788   1.962   1_565  S
O784        C794   1.306   1_565  A
O785        C792   1.285       .  A
O786        C793   1.250       .  A
O786       Co789   2.044       .  S
Co787       O791   2.042   1_664  S
Co790       O791   2.041   1_665  S
C792       C1113   1.428       .  S
C793       C1130   1.447       .  S
C794       C1148   1.431       .  S
C795       C1112   1.431       .  S
O796        C804   1.282       .  A
O796       Co816   1.894       .  S
O797        C805   1.266       .  A
O798        C806   1.280   1_554  A
O799        C807   1.244   1_556  A
O799       Co819   1.971       .  S
O800        C806   1.285       .  A
O801        C807   1.250       .  A
O801       Co816   2.044       .  S
O802        C805   1.258       .  A
O802       Co819   1.962       .  S
O803        C804   1.306       .  A
C804       C1139   1.431       .  S
C805       C1108   1.431       .  S
C806       C1115   1.428       .  S
C807       C1122   1.447       .  S
O808        C821   1.280   1_654  A
O809        C822   1.244   1_556  A
O809       Co817   1.971       .  S
O810        C823   1.282       .  A
O810       Co818   1.894       .  S
O811        C824   1.266   1_455  A
O812        C824   1.258       .  A
O812       Co817   1.962       .  S
O813        C823   1.306       .  A
O814        C821   1.285       .  A
O815        C822   1.250       .  A
O815       Co818   2.044       .  S
Co817       O820   2.041       .  S
Co818       O820   2.042   1_554  S
C821       C1114   1.428   1_455  S
C822       C1136   1.447       .  S
C823       C1172   1.431       .  S
C824       C1105   1.431       .  S
O825        C833   1.306       .  A
O825       Co845   2.072       .  S
O826        C834   1.258       .  A
O826       Co846   1.962       .  S
O827        C835   1.250       .  A
O827       Co847   2.043       .  S
O828        C836   1.285       .  A
O828       Co848   2.037       .  S
O829        C835   1.244       .  A
O829       Co846   1.971       .  S
O830        C836   1.280       .  A
O830       Co845   1.965       .  S
O831        C834   1.266       .  A
O831       Co848   2.012       .  S
O832        C833   1.282       .  A
O832       Co847   1.893       .  S
C833       C1109   1.431       .  S
C834       C1096   1.430       .  S
C835       C1097   1.447       .  S
C836       C1101   1.428       .  S
O837        C850   1.250       .  A
O837       Co845   2.043       .  S
O838        C851   1.285       .  A
O838       Co846   2.037   1_565  S
O839        C852   1.306       .  A
O839       Co847   2.072       .  S
O840        C853   1.258       .  A
O840       Co848   1.962       .  S
O841        C853   1.266       .  A
O841       Co846   2.011       .  S
O842        C852   1.282       .  A
O842       Co845   1.893       .  S
O843        C850   1.244       .  A
O843       Co848   1.971       .  S
O844        C851   1.280       .  A
O844       Co847   1.965   1_565  S
Co845       O849   2.041       .  S
Co846       O849   2.040       .  S
Co847       O849   2.041       .  S
Co848       O849   2.040       .  S
C850       C1103   1.447       .  S
C851       C1100   1.428       .  S
C852       C1126   1.431       .  S
C853       C1093   1.430       .  S
O854        C862   1.306       .  A
O854       Co874   2.072       .  S
O855        C863   1.258       .  A
O855       Co875   1.962       .  S
O856        C864   1.250       .  A
O856       Co876   2.044       .  S
O857        C865   1.285       .  A
O857       Co877   2.037       .  S
O858        C864   1.244       .  A
O858       Co875   1.971       .  S
O859        C865   1.280       .  A
O859       Co874   1.965       .  S
O860        C863   1.266       .  A
O860       Co877   2.011       .  S
O861        C862   1.282       .  A
O861       Co876   1.893       .  S
C862       C1118   1.431       .  S
C863       C1085   1.430       .  S
C864       C1092   1.447       .  S
C865       C1102   1.428       .  S
O866        C879   1.250       .  A
O866       Co874   2.043       .  S
O867        C880   1.285       .  A
O867       Co875   2.037       .  S
O868        C881   1.306       .  A
O868       Co876   2.072       .  S
O869        C882   1.258       .  A
O869       Co877   1.962       .  S
O870        C882   1.266       .  A
O870       Co875   2.012       .  S
O871        C881   1.282       .  A
O871       Co874   1.893       .  S
O872        C879   1.244       .  A
O872       Co877   1.971       .  S
O873        C880   1.280       .  A
O873       Co876   1.965       .  S
Co874       O878   2.041       .  S
Co875       O878   2.040       .  S
Co876       O878   2.041       .  S
Co877       O878   2.040       .  S
C879       C1089   1.447       .  S
C880       C1099   1.428       .  S
C881       C1106   1.431       .  S
C882       C1087   1.430       .  S
O883        C891   1.306       .  A
O883       Co903   2.072       .  S
O884        C892   1.258       .  A
O884       Co904   1.962       .  S
O885        C893   1.250       .  A
O885       Co905   2.043       .  S
O886        C894   1.285       .  A
O886       Co906   2.037       .  S
O887        C893   1.244       .  A
O887       Co904   1.971       .  S
O888        C894   1.280       .  A
O888       Co903   1.965       .  S
O889        C892   1.266       .  A
O889       Co906   2.012       .  S
O890        C891   1.282       .  A
O890       Co905   1.893       .  S
C891       C1107   1.431       .  S
C892       C1080   1.430       .  S
C893       C1090   1.447       .  S
C894       C1083   1.428       .  S
O895        C908   1.250       .  A
O895       Co903   2.044       .  S
O896        C909   1.285       .  A
O896       Co904   2.037       .  S
O897        C910   1.306       .  A
O897       Co905   2.072       .  S
O898        C911   1.258       .  A
O898       Co906   1.962       .  S
O899        C911   1.266       .  A
O899       Co904   2.011       .  S
O900        C910   1.282       .  A
O900       Co903   1.893       .  S
O901        C908   1.244       .  A
O901       Co906   1.971       .  S
O902        C909   1.280       .  A
O902       Co905   1.965       .  S
Co903       O907   2.041       .  S
Co904       O907   2.040       .  S
Co905       O907   2.041       .  S
Co906       O907   2.040       .  S
C908       C1104   1.447       .  S
C909       C1081   1.428       .  S
C910       C1127   1.431       .  S
C911       C1078   1.430       .  S
O912        C920   1.306       .  A
O912       Co932   2.072       .  S
O913        C921   1.258       .  A
O913       Co933   1.962       .  S
O914        C922   1.250       .  A
O914       Co934   2.044       .  S
O915        C923   1.285       .  A
O915       Co935   2.037   1_545  S
O916        C922   1.244       .  A
O916       Co933   1.971       .  S
O917        C923   1.280       .  A
O917       Co932   1.965   1_545  S
O918        C921   1.266       .  A
O918       Co935   2.011       .  S
O919        C920   1.282       .  A
O919       Co934   1.893       .  S
C920       C1119   1.431       .  S
C921       C1074   1.430       .  S
C922       C1091   1.447       .  S
C923       C1084   1.428       .  S
O924        C937   1.250       .  A
O924       Co932   2.043       .  S
O925        C938   1.285       .  A
O925       Co933   2.037       .  S
O926        C939   1.306       .  A
O926       Co934   2.072       .  S
O927        C940   1.258       .  A
O927       Co935   1.962       .  S
O928        C940   1.266       .  A
O928       Co933   2.012       .  S
O929        C939   1.282       .  A
O929       Co932   1.893       .  S
O930        C937   1.244       .  A
O930       Co935   1.971       .  S
O931        C938   1.280       .  A
O931       Co934   1.965       .  S
Co932       O936   2.041       .  S
Co933       O936   2.040       .  S
Co934       O936   2.041       .  S
Co935       O936   2.040       .  S
C937       C1098   1.447       .  S
C938       C1082   1.428       .  S
C939       C1111   1.431       .  S
C940       C1075   1.430       .  S
O941        C949   1.266       .  A
O941       Co961   2.012       .  S
O942        C950   1.282       .  A
O942       Co962   1.894       .  S
O943        C951   1.244       .  A
O943       Co963   1.971       .  S
O944        C952   1.280       .  A
O944       Co964   1.964       .  S
O945        C951   1.250       .  A
O945       Co962   2.044       .  S
O946        C952   1.285       .  A
O946       Co961   2.037       .  S
O947        C950   1.305   1_565  A
O947       Co964   2.071       .  S
O948        C949   1.258       .  A
O948       Co963   1.962   1_565  S
C949       C1166   1.431       .  S
C950       C1094   1.430       .  S
C951       C1071   1.447       .  S
C952       C1068   1.427       .  S
O953        C966   1.244       .  A
O953       Co961   1.971       .  S
O954        C967   1.280       .  A
O954       Co962   1.964       .  S
O955        C968   1.266       .  A
O955       Co963   2.012       .  S
O956        C969   1.282       .  A
O956       Co964   1.894       .  S
O957        C969   1.305   1_545  A
O957       Co962   2.070       .  S
O958        C968   1.258       .  A
O958       Co961   1.962   1_545  S
O959        C966   1.250       .  A
O959       Co964   2.044       .  S
O960        C967   1.285       .  A
O960       Co963   2.037       .  S
Co961       O965   2.041       .  S
Co962       O965   2.042   1_545  S
Co963       O965   2.041   1_545  S
Co964       O965   2.043       .  S
C966       C1065   1.447       .  S
C967       C1069   1.428       .  S
C968       C1153   1.431       .  S
C969       C1073   1.430       .  S
O970        C978   1.266       .  A
O970       Co990   2.012       .  S
O971        C979   1.282       .  A
O971       Co991   1.894       .  S
O972        C980   1.244       .  A
O972       Co992   1.971       .  S
O973        C981   1.280       .  A
O973       Co993   1.964       .  S
O974        C980   1.250       .  A
O974       Co991   2.044       .  S
O975        C981   1.285       .  A
O975       Co990   2.037       .  S
O976        C979   1.305       .  A
O976       Co993   2.071       .  S
O977        C978   1.258       .  A
O977       Co992   1.962       .  S
C978       C1142   1.431       .  S
C979       C1077   1.430       .  S
C980       C1061   1.447       .  S
C981       C1067   1.427       .  S
O982        C995   1.244       .  A
O982       Co990   1.971       .  S
O983        C996   1.280       .  A
O983       Co991   1.964       .  S
O984        C997   1.266       .  A
O984       Co992   2.012       .  S
O985        C998   1.282       .  A
O985       Co993   1.894       .  S
O986        C998   1.305       .  A
O986       Co991   2.070       .  S
O987        C997   1.258       .  A
O987       Co990   1.962       .  S
O988        C995   1.250       .  A
O988       Co993   2.044       .  S
O989        C996   1.285       .  A
O989       Co992   2.037       .  S
Co990       O994   2.041       .  S
Co991       O994   2.042       .  S
Co992       O994   2.041       .  S
Co993       O994   2.042       .  S
C995       C1063   1.447       .  S
C996       C1070   1.428       .  S
C997       C1182   1.431       .  S
C998       C1086   1.430       .  S
O999       C1007   1.266   1_455  A
O1000      C1008   1.282       .  A
O1000     Co1020   1.894       .  S
O1001      C1009   1.244       .  A
O1001     Co1021   1.972       .  S
O1002      C1010   1.280       .  A
O1002     Co1022   1.965       .  S
O1003      C1009   1.250       .  A
O1003     Co1020   2.043       .  S
O1004      C1010   1.285       .  A
O1004     Co1019   2.037       .  S
O1005      C1008   1.306       .  A
O1006      C1007   1.258       .  A
O1006     Co1021   1.962       .  S
C1007      C1183   1.431       .  S
C1008      C1095   1.430       .  S
C1009      C1072   1.447       .  S
C1010      C1058   1.428       .  S
O1011      C1024   1.244       .  A
O1011     Co1019   1.972       .  S
O1012      C1025   1.280   1_455  A
O1012     Co1020   1.965   1_455  S
O1013      C1026   1.266       .  A
O1014      C1027   1.282       .  A
O1014     Co1022   1.894       .  S
O1015      C1027   1.306       .  A
O1016      C1026   1.258       .  A
O1016     Co1019   1.962       .  S
O1017      C1024   1.250       .  A
O1017     Co1022   2.044       .  S
O1018      C1025   1.285       .  A
O1018     Co1021   2.037       .  S
Co1020     O1023   2.042       .  S
Co1021     O1023   2.041       .  S
C1024      C1062   1.447       .  S
C1025      C1059   1.428   1_655  S
C1026      C1156   1.431       .  S
C1027      C1079   1.430       .  S
O1028      C1036   1.266   1_455  A
O1029      C1037   1.282       .  A
O1029     Co1049   1.894       .  S
O1030      C1038   1.244       .  A
O1030     Co1050   1.972       .  S
O1031      C1039   1.280       .  A
O1031     Co1051   1.964       .  S
O1032      C1038   1.250       .  A
O1032     Co1049   2.044       .  S
O1033      C1039   1.285       .  A
O1033     Co1048   2.037       .  S
O1034      C1037   1.306       .  A
O1035      C1036   1.258       .  A
O1035     Co1050   1.962       .  S
C1036      C1167   1.431       .  S
C1037      C1088   1.430       .  S
C1038      C1064   1.447       .  S
C1039      C1060   1.428       .  S
O1040      C1053   1.244       .  A
O1040     Co1048   1.972       .  S
O1041      C1054   1.280   1_455  A
O1041     Co1049   1.964   1_455  S
O1042      C1055   1.266       .  A
O1043      C1056   1.282       .  A
O1043     Co1051   1.894       .  S
O1044      C1056   1.306       .  A
O1045      C1055   1.258       .  A
O1045     Co1048   1.962       .  S
O1046      C1053   1.250       .  A
O1046     Co1051   2.044       .  S
O1047      C1054   1.285       .  A
O1047     Co1050   2.037       .  S
Co1049     O1052   2.042       .  S
Co1050     O1052   2.041       .  S
C1053      C1066   1.447       .  S
C1054      C1057   1.428   1_655  S
C1055      C1144   1.431       .  S
C1056      C1076   1.430       .  S
C1061      C1062   1.213       .  T
C1063      C1064   1.213       .  T
C1065      C1066   1.213       .  T
C1067      C1068   1.202       .  T
C1069      C1070   1.202       .  T
C1071      C1072   1.213       .  T
C1073      C1074   1.203       .  T
C1075      C1076   1.203       .  T
C1077      C1078   1.203       .  T
C1079      C1080   1.203       .  T
C1081      C1082   1.203       .  T
C1083      C1084   1.203       .  T
C1085      C1086   1.203       .  T
C1087      C1088   1.203       .  T
C1091      C1092   1.213       .  T
C1093      C1094   1.203       .  T
C1095      C1096   1.203       .  T
C1099      C1100   1.203       .  T
C1101      C1102   1.203       .  T
C1103      C1104   1.213       .  T
C1105      C1106   1.203       .  T
C1107      C1108   1.203       .  T
C1109      C1110   1.203       .  T
C1111      C1112   1.203       .  T
C1117      C1118   1.203       .  T
C1119      C1120   1.203       .  T
C1121      C1122   1.213       .  T
C1123      C1124   1.213       .  T
C1125      C1126   1.203       .  T
C1127      C1128   1.203       .  T
C1129      C1130   1.213       .  T
C1131      C1132   1.203       .  T
C1133      C1134   1.203   1_565  T
C1135      C1136   1.213       .  T
C1137      C1138   1.204       .  T
C1139      C1140   1.204       .  T
C1141      C1142   1.204       .  T
C1143      C1144   1.203       .  T
C1145      C1146   1.204       .  T
C1147      C1148   1.204       .  T
C1149      C1150   1.203       .  T
C1151      C1152   1.202       .  T
C1153      C1154   1.204       .  T
C1155      C1156   1.203       .  T
C1157      C1158   1.203       .  T
C1159      C1160   1.203       .  T
C1163      C1164   1.213   1_565  T
C1165      C1166   1.204       .  T
C1167      C1168   1.204       .  T
C1169      C1170   1.204       .  T
C1171      C1172   1.204       .  T
C1175      C1176   1.203       .  T
C1177      C1178   1.203       .  T
C1179      C1180   1.213       .  T
C1181      C1182   1.204       .  T
C1183      C1184   1.204       .  T
