geometry optimzed in LAMMPS
_audit_creation_date              2020-11-30 
_audit_creation_method            'lammps2cif' 
_symmetry_space_group_name_H-M    'P1' 
_symmetry_Int_Tables_number       1 
_symmetry_cell_setting            triclinic 
loop_ 
_symmetry_equiv_pos_as_xyz 
  x,y,z 
_cell_length_a                    40.06073813014205 
_cell_length_b                    48.19900552991325 
_cell_length_c                    36.652323466141475 
_cell_angle_alpha                 83.35522870785604 
_cell_angle_beta                  96.12578643390393 
_cell_angle_gamma                 91.65561077295132 
loop_ 
_atom_site_label 
_atom_site_type_symbol 
_atom_site_fract_x 
_atom_site_fract_y 
_atom_site_fract_z 
_atom_site_charge 
O1          O  0.21315536  0.49450614  0.39359226    -0.82070
O2          O  0.23580524  0.01827914  0.05764553    -0.66760
O3          O  0.23395675  0.01029903  0.46050061    -1.13360
C4          C  0.31541958  0.43712205  0.50217857     1.04820
O5          O  0.29047938  0.01556205  0.06323836    -0.79970
O6          O  0.32922038  0.00079097  0.01784146    -0.67550
Ni7        Ni  0.19217906  0.01141710  0.43009985     1.34870
C8          C  0.32185590  0.01489126  0.98709504     0.83550
O9          O  0.20633123  0.04571384  0.00244578    -0.80510
O10         O  0.16714485  0.02968501  0.46304342    -0.90780
C11         C  0.26343261  0.01717306  0.07749131     0.83130
O12         O  0.18378011  0.47626414  0.45580831    -0.68980
O13         O  0.31543415  0.44545953  0.03419629    -0.88270
C14         C  0.18129535  0.47088455  0.49030414     0.83960
C15         C  0.17641426  0.04506874  0.98843950     1.05520
H16         H  0.24880234  0.46513013  0.02719947     0.37330
O17         O  0.26172922  0.48098257  0.01748559    -1.10930
O18         O  0.29896154  0.00687160  0.46327054    -0.67580
Ni19       Ni  0.26331316  0.47755674  0.46795586     1.26350
O20         O  0.19453662  0.48686682  0.01420492    -0.67810
O21         O  0.29582951  0.44738919  0.47449949    -0.80100
C22         C  0.24457260  0.49130056  0.39777212     0.83340
O23         O  0.25565123  0.47073574  0.41843589    -0.67280
Ni24       Ni  0.30183964  0.48026087  0.04940057     1.27450
Ni25       Ni  0.23337760  0.01350932  0.00949007     1.26060
H26         H  0.24607917  0.02699171  0.45232117     0.37880
O27         O  0.19560755  0.46715630  0.19030642    -0.82070
O28         O  0.25976907  0.01878548  0.31787647    -0.66760
O29         O  0.23246135  0.00493220  0.22252264    -1.13360
C30         C  0.32016280  0.43695903  0.25160402     1.04820
O31         O  0.31070387  0.02145854  0.29851744    -0.79970
O32         O  0.33458630  0.99475671  0.24884967    -0.67550
Ni33       Ni  0.18882798  0.00487301  0.19978000     1.34870
C34         C  0.32230064  0.01370391  0.22571931     0.83550
O35         O  0.20539112  0.03662098  0.27155745    -0.80510
O36         O  0.18281767  0.04223339  0.21227086    -0.90780
C37         C  0.28971427  0.02979622  0.31784053     0.83130
O38         O  0.16976397  0.49276320  0.24317175    -0.68980
O39         O  0.32173661  0.44516811  0.28392053    -0.88270
C40         C  0.18157033  0.47321461  0.26554039     0.83960
C41         C  0.18419330  0.04798803  0.24581839     1.05520
H42         H  0.26431181  0.46418302  0.28603633     0.37330
O43         O  0.27268127  0.48092369  0.27267488    -1.10930
O44         O  0.29454720  0.00822251  0.20702600    -0.67580
Ni45       Ni  0.26484742  0.47582811  0.22366592     1.26350
O46         O  0.20922915  0.47738084  0.28577794    -0.67810
O47         O  0.30034750  0.44825213  0.22446822    -0.80100
C48         C  0.21715359  0.46331438  0.16859831     0.83340
O49         O  0.24848523  0.46710266  0.17808324    -0.67280
Ni50       Ni  0.31638464  0.48322114  0.29303304     1.27450
Ni51       Ni  0.24054903  0.00940796  0.27192545     1.26060
H52         H  0.24132620  0.02188029  0.21019752     0.37880
O53         O  0.38316900  0.06286462  0.07787321    -0.82070
O54         O  0.39756074  0.06627018  0.40229960    -0.66760
O55         O  0.41496803  0.06048493  0.01026679    -1.13360
C56         C  0.42541700  0.15481339  0.50379018     1.04820
O57         O  0.40813853  0.11161109  0.38695103    -0.79970
O58         O  0.45658378  0.10685557  0.44479864    -0.67550
Ni59       Ni  0.38905692  0.03737044  0.04185789     1.34870
C60         C  0.47210988  0.10353012  0.47701731     0.83550
O61         O  0.41425808  0.02301419  0.45606674    -0.80510
O62         O  0.39503185  0.00935207  0.01109767    -0.90780
C63         C  0.40171658  0.08713624  0.37797291     0.83130
O64         O  0.35087764  0.05238743  0.01173875    -0.68980
O65         O  0.43269663  0.15224404  0.47138752    -0.88270
C66         C  0.34156084  0.04155024  0.48252753     0.83960
C67         C  0.40459694  0.00413667  0.48057029     1.05520
H68         H  0.37059409  0.10428457  0.45800147     0.37330
O69         O  0.39449891  0.10112056  0.46191036    -1.10930
O70         O  0.45749651  0.10339628  0.00652466    -0.67580
Ni71       Ni  0.41014128  0.09858119  0.01474074     1.26350
O72         O  0.35711918  0.04873899  0.45446196    -0.67810
O73         O  0.40655333  0.13721364  0.01998868    -0.80100
C74         C  0.40419643  0.08086964  0.08955039     0.83340
O75         O  0.42313651  0.09416461  0.06747320    -0.67280
Ni76       Ni  0.41815941  0.12905798  0.43209428     1.27450
Ni77       Ni  0.40430628  0.06229742  0.45649668     1.26060
H78         H  0.43810153  0.05510914  0.01650037     0.37880
O79         O  0.37709703  0.06861687  0.32185586    -0.82070
O80         O  0.40361173  0.06548964  0.15392122    -0.66760
O81         O  0.41414686  0.06142672  0.26065244    -1.13360
C82         C  0.42819379  0.15516367  0.25327697     1.04820
O83         O  0.41048290  0.11120804  0.13704945    -0.79970
O84         O  0.45848886  0.10584668  0.19529943    -0.67550
Ni85       Ni  0.38542161  0.04000741  0.29000134     1.34870
C86         C  0.47375503  0.10277519  0.22763396     0.83550
O87         O  0.41762750  0.02332828  0.20916300    -0.80510
O88         O  0.39513168  0.01033899  0.26277876    -0.90780
C89         C  0.40613979  0.08619055  0.12920260     0.83130
O90         O  0.34720222  0.05159327  0.25589907    -0.68980
O91         O  0.43616824  0.15215532  0.22123866    -0.88270
C92         C  0.34101847  0.04137017  0.22546054     0.83960
C93         C  0.40725737  0.00469249  0.23354087     1.05520
H94         H  0.37262553  0.10472979  0.20640876     0.37330
O95         O  0.39650748  0.10163409  0.21119053    -1.10930
O96         O  0.45878542  0.10302278  0.25697328    -0.67580
Ni97       Ni  0.41081357  0.09952135  0.26424518     1.26350
O98         O  0.35995035  0.04904734  0.20045728    -0.67810
O99         O  0.40823396  0.13825255  0.26880721    -0.80100
C100        C  0.40040550  0.08314585  0.33736051     0.83340
O101        O  0.42214790  0.09491851  0.31740686    -0.67280
Ni102      Ni  0.42107951  0.12901368  0.18184187     1.27450
Ni103      Ni  0.40699752  0.06258399  0.20739073     1.26060
H104        H  0.43675999  0.05535343  0.26886562     0.37880
O105        O  0.06529857  0.11684929  0.39499231    -0.82070
O106        O  0.06752509  0.10711545  0.07443236    -0.66760
O107        O  0.08427471  0.11553834  0.47094904    -1.13360
C108        C  0.08875669  0.01556293  0.50170033     1.04820
O109        O  0.11285008  0.08151986  0.08961533    -0.79970
O110        O  0.14410043  0.05280451  0.03693395    -0.67550
Ni111      Ni  0.05274816  0.13510657  0.43485535     1.34870
C112        C  0.15069777  0.06009004  0.00366735     0.83550
O113        O  0.06853979  0.15235819  0.02097854    -0.80510
O114        O  0.03633545  0.15843279  0.46737921    -0.90780
C115        C  0.08844462  0.09428394  0.09954584     0.83130
O116        O  0.02104900  0.10668783  0.44805003    -0.68980
O117        O  0.08969649  0.02025150  0.03506944    -0.88270
C118        C  0.00848874  0.10484592  0.47878263     0.83960
C119        C  0.04609814  0.16568357  0.99880434     1.05520
H120        H  0.05426601  0.06593033  0.02047630     0.37330
O121        O  0.07664339  0.07386378  0.01988695    -1.10930
O122        O  0.13304762  0.07704350  0.48124327    -0.67580
Ni123      Ni  0.08587568  0.07533952  0.46959447     1.26350
O124        O  0.02567117  0.10888078  0.00929304    -0.67810
O125        O  0.08799712  0.03454462  0.47349657    -0.80100
C126        C  0.08292918  0.09660964  0.38980354     0.83340
O127        O  0.09439241  0.07856172  0.41674857    -0.67280
Ni128      Ni  0.10199521  0.05181994  0.05926119     1.27450
Ni129      Ni  0.07395635  0.11268692  0.02180927     1.26060
H130        H  0.10623941  0.12406862  0.46914398     0.37880
O131        O  0.06678136  0.11605761  0.14531879    -0.82070
O132        O  0.06828087  0.10796813  0.32408889    -0.66760
O133        O  0.08647007  0.11512134  0.22109377    -1.13360
C134        C  0.09060127  0.01520876  0.25299308     1.04820
O135        O  0.11323386  0.08233762  0.34092771    -0.79970
O136        O  0.14696540  0.05584079  0.28959470    -0.67550
Ni137      Ni  0.05438589  0.13437598  0.18496908     1.34870
C138        C  0.15486196  0.06196601  0.25657174     0.83550
O139        O  0.07029156  0.15254792  0.27019816    -0.80510
O140        O  0.03770180  0.15795766  0.21692365    -0.90780
C141        C  0.08848935  0.09519181  0.34983079     0.83130
O142        O  0.02279182  0.10587298  0.19856952    -0.68980
O143        O  0.09416709  0.02026482  0.28634937    -0.88270
C144        C  0.01023033  0.10422312  0.22930771     0.83960
C145        C  0.04776087  0.16568054  0.24796162     1.05520
H146        H  0.05655302  0.06583649  0.27150935     0.37330
O147        O  0.07886029  0.07387526  0.27068207    -1.10930
O148        O  0.13576673  0.07514445  0.23073634    -0.67580
Ni149      Ni  0.08785737  0.07479248  0.22023477     1.26350
O150        O  0.02746167  0.10872306  0.25953343    -0.67810
O151        O  0.08879609  0.03397703  0.22451452    -0.80100
C152        C  0.08389781  0.09563070  0.13990449     0.83340
O153        O  0.09546635  0.07754529  0.16686549    -0.67280
Ni154      Ni  0.10428924  0.05242564  0.31050052     1.27450
Ni155      Ni  0.07574081  0.11281986  0.27183819     1.26060
H156        H  0.10846377  0.12354636  0.21915519     0.37880
O157        O  0.08887731  0.38379513  0.09989537    -0.82070
O158        O  0.07651165  0.39354893  0.41901918    -0.66760
O159        O  0.10521988  0.38917001  0.02545104    -1.13360
C160        C  0.09236778  0.48635911  0.99704226     1.04820
O161        O  0.11717567  0.42443875  0.40890353    -0.79970
O162        O  0.14776922  0.43411705  0.47216893    -0.67550
Ni163      Ni  0.08222048  0.36365058  0.05901794     1.34870
C164        C  0.15885838  0.44656752  0.49902303     0.83550
O165        O  0.08789951  0.34859858  0.47030258    -0.80510
O166        O  0.07243708  0.33765404  0.02620959    -0.90780
C167        C  0.09431849  0.40854348  0.39675281     0.83130
O168        O  0.04043339  0.38140188  0.04211079    -0.68980
O169        O  0.10628945  0.48177994  0.46880820    -0.88270
C170        C  0.02616573  0.38334329  0.00907316     0.83960
C171        C  0.07439211  0.33176097  0.49426336     1.05520
H172        H  0.06231246  0.43371375  0.46787626     0.37330
O173        O  0.08542054  0.42825663  0.47419556    -1.10930
O174        O  0.14333920  0.44278062  0.02758334    -0.67580
Ni175      Ni  0.09635407  0.42859246  0.02747343     1.26350
O176        O  0.04198170  0.38511328  0.48038273    -0.67810
O177        O  0.08492368  0.46735037  0.02277741    -0.80100
C178        C  0.09865629  0.40745353  0.10764859     0.83340
O179        O  0.10471608  0.42737626  0.08236877    -0.67280
Ni180      Ni  0.11154617  0.45106177  0.44156623     1.27450
Ni181      Ni  0.08886849  0.38913130  0.47235359     1.26060
H182        H  0.12907064  0.38588150  0.02926378     0.37880
O183        O  0.08842553  0.38028637  0.35024517    -0.82070
O184        O  0.08255713  0.39480895  0.16906728    -0.66760
O185        O  0.10531991  0.38802780  0.27643192    -1.13360
C186        C  0.09316578  0.48579519  0.24821052     1.04820
O187        O  0.12622052  0.42359649  0.16346375    -0.79970
O188        O  0.15601482  0.43828820  0.23124242    -0.67550
Ni189      Ni  0.08255723  0.36146779  0.30841720     1.34870
C190        C  0.16165372  0.44677440  0.26301458     0.83550
O191        O  0.08997017  0.34835259  0.21904325    -0.80510
O192        O  0.07344562  0.33688267  0.27418544    -0.90780
C193        C  0.10210034  0.40968966  0.14847448     0.83130
O194        O  0.04165520  0.37996433  0.29102296    -0.68980
O195        O  0.10860584  0.48134075  0.22104321    -0.88270
C196        C  0.02811938  0.38315274  0.25769153     0.83960
C197        C  0.07598234  0.33131607  0.24231725     1.05520
H198        H  0.06728474  0.43357213  0.21616465     0.37330
O199        O  0.08985806  0.42769653  0.22502074    -1.11130
O200        O  0.14135632  0.43960706  0.28671693    -0.67580
Ni201      Ni  0.09450614  0.42722280  0.27797021     1.26350
O202        O  0.04445510  0.38560713  0.22913008    -0.67810
O203        O  0.08378204  0.46654499  0.27276874    -0.80100
C204        C  0.09213304  0.40497094  0.35711894     0.83340
O205        O  0.09555284  0.42547196  0.33199976    -0.67280
Ni206      Ni  0.11848452  0.45079986  0.19600673     1.27450
Ni207      Ni  0.09204818  0.38876963  0.22267795     1.26060
H208        H  0.12925761  0.38543794  0.28142503     0.37880
O209        O  0.44351293  0.38197962  0.41594567    -0.82070
O210        O  0.43835590  0.38887442  0.08752859    -0.66760
O211        O  0.41104833  0.38084216  0.48322948    -1.13360
C212        C  0.39931335  0.47446875  0.47622875     1.04820
O213        O  0.39820799  0.42005444  0.09056708    -0.79970
O214        O  0.36042783  0.40998409  0.02784226    -0.67550
Ni215      Ni  0.43240916  0.35648404  0.45675492     1.34870
C216        C  0.34348931  0.41784475  0.49787522     0.83550
O217        O  0.44335909  0.34298245  0.04671182    -0.80510
O218        O  0.41968799  0.33038622  0.49535739    -0.90780
C219        C  0.42079546  0.40342169  0.10599480     0.83130
O220        O  0.47699294  0.36538170  0.47932711    -0.68980
O221        O  0.37829160  0.46262498  0.99643412    -0.88270
C222        C  0.48979299  0.38039655  0.50398399     0.83960
C223        C  0.44125841  0.32570819  0.02228283     1.05520
H224        H  0.44160963  0.43259668  0.02395715     0.37330
O225        O  0.42083834  0.42210442  0.02026361    -1.10930
O226        O  0.35920517  0.42047349  0.46837165    -0.67580
Ni227      Ni  0.41018943  0.41944099  0.46725832     1.26350
O228        O  0.47297071  0.39092481  0.02613604    -0.67810
O229        O  0.41376437  0.46005366  0.45573108    -0.80100
C230        C  0.42307350  0.39903233  0.39775475     0.83340
O231        O  0.40414237  0.41380963  0.41438123    -0.67280
Ni232      Ni  0.38859061  0.43981251  0.04256375     1.27450
Ni233      Ni  0.42784657  0.38284299  0.03529652     1.26060
H234        H  0.38794815  0.37444033  0.48282650     0.37880
O235        O  0.44441373  0.38259135  0.16426024    -0.82070
O236        O  0.43991595  0.38771597  0.33832067    -0.66760
O237        O  0.41368309  0.38129500  0.23275815    -1.13360
C238        C  0.40413868  0.47470485  0.22972280     1.04820
O239        O  0.39732192  0.41659647  0.34047767    -0.79970
O240        O  0.36383500  0.40847942  0.27573241    -0.67550
Ni241      Ni  0.43421752  0.35701062  0.20548094     1.34870
C242        C  0.34731902  0.41766001  0.24617205     0.83550
O243        O  0.44543226  0.34247831  0.29614395    -0.80510
O244        O  0.42222859  0.33065608  0.24420568    -0.90780
C245        C  0.42067977  0.40118466  0.35647810     0.83130
O246        O  0.47885122  0.36613626  0.22730351    -0.68980
O247        O  0.38287686  0.46225771  0.24894506    -0.88270
C248        C  0.49180448  0.38052044  0.25258040     0.83960
C249        C  0.44375120  0.32575325  0.27116757     1.05520
H250        H  0.44458898  0.43191656  0.27648269     0.37330
O251        O  0.42389868  0.42153240  0.27163274    -1.10930
O252        O  0.36343136  0.42173059  0.21728041    -0.67580
Ni253      Ni  0.41413678  0.42020537  0.21810975     1.26350
O254        O  0.47536104  0.39008801  0.27599165    -0.67810
O255        O  0.41870588  0.46093798  0.20855360    -0.80100
C256        C  0.42467842  0.40078255  0.14725972     0.83340
O257        O  0.40769640  0.41618294  0.16496105    -0.67280
Ni258      Ni  0.39065858  0.43796925  0.29370956     1.27450
Ni259      Ni  0.43020338  0.38228633  0.28538950     1.26060
H260        H  0.39044415  0.37525523  0.23195570     0.37880
O261        O  0.44651151  0.27234462  0.44217592    -0.82070
O262        O  0.03288240  0.26493954  0.08359399    -0.66760
O263        O  0.00409622  0.25582761  0.48365544    -1.13360
C264        C  0.44188174  0.17805206  0.52241488     1.04820
O265        O  0.03213701  0.22088668  0.09872001    -0.79970
O266        O  0.03202309  0.19078939  0.04491503    -0.67550
Ni267      Ni  0.99175934  0.28730688  0.44936699     1.34870
C268        C  0.02636101  0.18715097  0.01142650     0.83550
O269        O  0.04847121  0.29109731  0.01801789    -0.80510
O270        O  0.03629895  0.30439770  0.45696383    -0.90780
C271        C  0.02302667  0.24458880  0.10474559     0.83130
O272        O  0.47508233  0.31065281  0.48120216    -0.68980
O273        O  0.46588034  0.17347669  0.04855322    -0.88270
C274        C  0.46880104  0.30745740  0.51458912     0.83960
C275        C  0.05370038  0.30648053  0.98796650     1.05520
H276        H  0.46565803  0.23925969  0.05269197     0.37330
O277        O  0.48491055  0.23198329  0.04349536    -1.10930
O278        O  0.00160872  0.19858481  0.49014821    -0.67580
Ni279      Ni  0.47004506  0.22839773  0.49479679     1.26350
O280        O  0.48254140  0.28833003  0.03764299    -0.67810
O281        O  0.43578967  0.20227147  0.50678717    -0.80100
C282        C  0.44124115  0.24955093  0.42818035     0.83340
O283        O  0.45339646  0.22738930  0.44580545    -0.67280
Ni284      Ni  0.49856085  0.19845428  0.07411429     1.27450
Ni285      Ni  0.01775096  0.26175152  0.03269180     1.26060
H286        H  0.02227982  0.24701159  0.47430332     0.37880
O287        O  0.44747448  0.27274875  0.19291707    -0.82070
O288        O  0.53580571  0.26517599  0.33230376    -0.66760
O289        O  0.00574788  0.25563987  0.23283151    -1.13360
C290        C  0.44460343  0.17818673  0.27234300     1.04820
O291        O  0.53550366  0.22113918  0.34783075    -0.79970
O292        O  0.03489387  0.19177133  0.29343000    -0.67550
Ni293      Ni  0.99320929  0.28707928  0.19857119     1.34870
C294        C  0.02838137  0.18749156  0.26027757     0.83550
O295        O  0.05060715  0.29067666  0.26601957    -0.80510
O296        O  0.03816441  0.30365933  0.20491845    -0.90780
C297        C  0.52650760  0.24486341  0.35394020     0.83130
O298        O  0.47814126  0.31110594  0.23049186    -0.68980
O299        O  0.46913346  0.17352146  0.29787214    -0.88270
C300        C  0.47139242  0.30759934  0.26367247     0.83960
C301        C  0.05569869  0.30590631  0.23581094     1.05520
H302        H  0.46851672  0.23932084  0.30298700     0.37330
O303        O  0.48750109  0.23205557  0.29329023    -1.10930
O304        O  0.00307639  0.19852860  0.23945897    -0.67580
Ni305      Ni  0.47179690  0.22848780  0.24484298     1.26350
O306        O  0.48484252  0.28826308  0.28664849    -0.67810
O307        O  0.43777457  0.20252491  0.25775823    -0.80100
C308        C  0.44100662  0.24986043  0.17942799     0.83340
O309        O  0.45392675  0.22769677  0.19627296    -0.67280
Ni310      Ni  0.50181131  0.19858456  0.32344567     1.27450
Ni311      Ni  0.02006508  0.26166422  0.28159763     1.26060
H312        H  0.02369148  0.24670322  0.22321368     0.37880
C313        C  0.97347769  0.22206026  0.37422967    -0.03030
C314        C  0.49348670  0.24690433  0.36762566     0.06650
C315        C  0.47774542  0.27345268  0.36506221    -0.03140
C316        C  0.44330375  0.27391740  0.36950768    -0.03140
C317        C  0.43035149  0.24991272  0.38828384     0.06790
C318        C  0.93893014  0.22500311  0.37598130    -0.03340
Br319      Br  0.90949616  0.19310742  0.38305430    -0.01890
Br320      Br  0.99268767  0.18581173  0.39139479    -0.01960
Br321      Br  0.41933405  0.30806300  0.36776890    -0.01920
Br322      Br  0.50298553  0.30834844  0.36331697    -0.01900
C323        C  0.96943076  0.22194171  0.12417852    -0.03030
C324        C  0.98966289  0.24671908  0.11755392     0.06650
C325        C  0.47411467  0.27338183  0.11510648    -0.03140
C326        C  0.43982444  0.27393574  0.12029026    -0.03140
C327        C  0.42754321  0.25013537  0.14012582     0.06790
C328        C  0.93509779  0.22520193  0.12716997    -0.03340
Br329      Br  0.90535903  0.19364248  0.13525527    -0.01890
Br330      Br  0.98836430  0.18556604  0.14135162    -0.01960
Br331      Br  0.41599422  0.30811696  0.11877704    -0.01920
Br332      Br  0.49954883  0.30819036  0.11375762    -0.01900
C333        C  0.25809279  0.04269081  0.38258117    -0.03030
C334        C  0.26839966  0.51436090  0.39264067     0.06650
C335        C  0.30302984  0.50758070  0.39134849    -0.03140
C336        C  0.32296794  0.52753200  0.37287480    -0.03140
C337        C  0.30429156  0.04645113  0.34725534     0.06790
C338        C  0.27958761  0.06011673  0.36195719    -0.03340
Br339      Br  0.26793392  0.09721150  0.34063479    -0.01890
Br340      Br  0.21409210  0.05621879  0.38748268    -0.01960
Br341      Br  0.36739704  0.51675195  0.36453070    -0.01920
Br342      Br  0.32129851  0.47009988  0.40244021    -0.01900
C343        C  0.23028311  0.01414137  0.12559776    -0.03030
C344        C  0.25967786  0.00403616  0.11342536     0.06650
C345        C  0.26255342  0.47509366  0.11090841    -0.03140
C346        C  0.23311333  0.45829301  0.11059198    -0.03140
C347        C  0.20744836  0.46785462  0.12897911     0.06790
C348        C  0.20152681  0.99661814  0.12314720    -0.03340
Br349      Br  0.15728577  0.01002092  0.12575189    -0.01890
Br350      Br  0.22667056  0.05336859  0.12959130    -0.01960
Br351      Br  0.23456990  0.41920650  0.10583977    -0.01920
Br352      Br  0.30635075  0.45874857  0.11778625    -0.01900
O353        O  0.21315511  0.49450494  0.89359209    -0.82070
O354        O  0.23580444  0.01828041  0.55764562    -0.66760
O355        O  0.23395624  0.01029795  0.96050029    -1.13360
C356        C  0.31541919  0.43712098  0.00217896     1.04820
O357        O  0.29047843  0.01556157  0.56324189    -0.79970
O358        O  0.32921924  0.00079403  0.51784347    -0.67550
Ni359      Ni  0.19217870  0.01141606  0.93009950     1.34870
C360        C  0.32185578  0.01489266  0.48709559     0.83550
O361        O  0.20633161  0.04571508  0.50244562    -0.80510
O362        O  0.16714460  0.02968419  0.96304293    -0.90780
C363        C  0.26343075  0.01717241  0.57749310     0.83130
O364        O  0.18377970  0.47626319  0.95580813    -0.68980
O365        O  0.31543589  0.44546138  0.53419556    -0.88270
C366        C  0.18129507  0.47088356  0.99030400     0.83960
C367        C  0.17641454  0.04506969  0.48843981     1.05520
H368        H  0.24880233  0.46513119  0.52720005     0.37330
O369        O  0.26172935  0.48098355  0.51748620    -1.10930
O370        O  0.29896077  0.00687136  0.96327020    -0.67580
Ni371      Ni  0.26331312  0.47755591  0.96795539     1.26350
O372        O  0.19453673  0.48686794  0.51420498    -0.67810
O373        O  0.29583021  0.44738885  0.97449931    -0.80100
C374        C  0.24457241  0.49129964  0.89777177     0.83340
O375        O  0.25565134  0.47073487  0.91843542    -0.67280
Ni376      Ni  0.30183970  0.48026157  0.54940160     1.27450
Ni377      Ni  0.23337781  0.01351047  0.50949032     1.26060
H378        H  0.24607844  0.02699075  0.95232090     0.37880
O379        O  0.19560529  0.46715577  0.69030816    -0.82070
O380        O  0.25976789  0.01878579  0.81787625    -0.66760
O381        O  0.23245937  0.00493222  0.72252266    -1.13360
C382        C  0.32016126  0.43695941  0.75160339     1.04820
O383        O  0.31070244  0.02145901  0.79851663    -0.79970
O384        O  0.33458440  0.99475706  0.74884847    -0.67550
Ni385      Ni  0.18882575  0.00487266  0.69978085     1.34870
C386        C  0.32229858  0.01370433  0.72571836     0.83550
O387        O  0.20538956  0.03662109  0.77155755    -0.80510
O388        O  0.18281568  0.04223323  0.71227108    -0.90780
C389        C  0.28971311  0.02979647  0.81784022     0.83130
O390        O  0.16976236  0.49276335  0.74317315    -0.68980
O391        O  0.32173527  0.44516859  0.78391985    -0.88270
C392        C  0.18156888  0.47321466  0.76554144     0.83960
C393        C  0.18419160  0.04798805  0.74581854     1.05520
H394        H  0.26431060  0.46418332  0.78603613     0.37330
O395        O  0.27267986  0.48092400  0.77267452    -1.10930
O396        O  0.29454504  0.00822286  0.70702522    -0.67580
Ni397      Ni  0.26484555  0.47582828  0.72366559     1.26350
O398        O  0.20922798  0.47738085  0.78577849    -0.67810
O399        O  0.30034578  0.44825240  0.72446764    -0.80100
C400        C  0.21715063  0.46331351  0.66859948     0.83340
O401        O  0.24848245  0.46710243  0.67808313    -0.67280
Ni402      Ni  0.31638332  0.48322163  0.79303224     1.27450
Ni403      Ni  0.24054754  0.00940813  0.77192539     1.26060
H404        H  0.24132397  0.02188031  0.71019727     0.37880
O405        O  0.38316816  0.06286546  0.57787268    -0.82070
O406        O  0.39755943  0.06626991  0.90229951    -0.66760
O407        O  0.41496808  0.06048542  0.51026692    -1.13360
C408        C  0.42541672  0.15481289  0.00379046     1.04820
O409        O  0.40813770  0.11161079  0.88695122    -0.79970
O410        O  0.45658342  0.10685529  0.94479857    -0.67550
Ni411      Ni  0.38905613  0.03737128  0.54185744     1.34870
C412        C  0.47210962  0.10352976  0.97701721     0.83550
O413        O  0.41425737  0.02301372  0.95606641    -0.80510
O414        O  0.39503109  0.00935282  0.51109728    -0.90780
C415        C  0.40171523  0.08713605  0.87797290     0.83130
O416        O  0.35087791  0.05238928  0.51173748    -0.68980
O417        O  0.43269624  0.15224361  0.97138773    -0.88270
C418        C  0.34156073  0.04154901  0.98252822     0.83960
C419        C  0.40459698  0.00413608  0.98057028     1.05520
H420        H  0.37059369  0.10428418  0.95800193     0.37330
O421        O  0.39449851  0.10112013  0.96191062    -1.10930
O422        O  0.45749669  0.10339669  0.50652473    -0.67580
Ni423      Ni  0.41014136  0.09858171  0.51474060     1.26350
O424        O  0.35711869  0.04873866  0.95446259    -0.67810
O425        O  0.40655348  0.13721421  0.51998834    -0.80100
C426        C  0.40419567  0.08087030  0.58955014     0.83340
O427        O  0.42313611  0.09416516  0.56747320    -0.67280
Ni428      Ni  0.41815888  0.12905760  0.93209449     1.27450
Ni429      Ni  0.40430570  0.06229700  0.95649665     1.26060
H430        H  0.43810149  0.05510950  0.51650092     0.37880
O431        O  0.37709488  0.06861737  0.82185549    -0.82070
O432        O  0.40361036  0.06549012  0.65392089    -0.66760
O433        O  0.41414479  0.06142700  0.76065217    -1.13360
C434        C  0.42819227  0.15516387  0.75327700     1.04820
O435        O  0.41048159  0.11120855  0.63704932    -0.79970
O436        O  0.45848724  0.10584685  0.69529941    -0.67550
Ni437      Ni  0.38541926  0.04000788  0.79000088     1.34870
C438        C  0.47375332  0.10277519  0.72763397     0.83550
O439        O  0.41762554  0.02332856  0.70916281    -0.80510
O440        O  0.39512941  0.01033945  0.76277843    -0.90780
C441        C  0.40613865  0.08619109  0.62920237     0.83130
O442        O  0.34720003  0.05159380  0.75589826    -0.68980
O443        O  0.43616679  0.15215552  0.72123874    -0.88270
C444        C  0.34101639  0.04137066  0.72545972     0.83960
C445        C  0.40725533  0.00469283  0.73354073     1.05520
H446        H  0.37262378  0.10473026  0.70640841     0.37330
O447        O  0.39650582  0.10163447  0.71119029    -1.10930
O448        O  0.45878366  0.10302283  0.75697324    -0.67580
Ni449      Ni  0.41081176  0.09952161  0.76424499     1.26350
O450        O  0.35994847  0.04904780  0.70045662    -0.67810
O451        O  0.40823236  0.13825280  0.76880718    -0.80100
C452        C  0.40040368  0.08314597  0.83736033     0.83340
O453        O  0.42214609  0.09491859  0.81740667    -0.67280
Ni454      Ni  0.42107807  0.12901403  0.68184183     1.27450
Ni455      Ni  0.40699571  0.06258434  0.70739044     1.26060
H456        H  0.43675783  0.05535359  0.76886547     0.37880
O457        O  0.06529824  0.11684924  0.89499239    -0.82070
O458        O  0.06752500  0.10711608  0.57443230    -0.66760
O459        O  0.08427445  0.11553773  0.97094903    -1.13360
C460        C  0.08875629  0.01556227  0.00170016     1.04820
O461        O  0.11284987  0.08152041  0.58961557    -0.79970
O462        O  0.14410053  0.05280498  0.53693436    -0.67550
Ni463      Ni  0.05274797  0.13510627  0.93485555     1.34870
C464        C  0.15069807  0.06009084  0.50366790     0.83550
O465        O  0.06853984  0.15235883  0.52097832    -0.80510
O466        O  0.03633529  0.15843230  0.96737957    -0.90780
C467        C  0.08844427  0.09428441  0.59954591     0.83130
O468        O  0.02104872  0.10668756  0.94804993    -0.68980
O469        O  0.08969647  0.02025212  0.53506958    -0.88270
C470        C  0.00848849  0.10484551  0.97878254     0.83960
C471        C  0.04609825  0.16568417  0.49880396     1.05520
H472        H  0.05426615  0.06593095  0.52047613     0.37330
O473        O  0.07664354  0.07386441  0.51988699    -1.10930
O474        O  0.13304718  0.07704248  0.98124249    -0.67580
Ni475      Ni  0.08587511  0.07533888  0.96959429     1.26350
O476        O  0.02567136  0.10888138  0.50929305    -0.67810
O477        O  0.08799632  0.03454394  0.97349633    -0.80100
C478        C  0.08292828  0.09660934  0.88980337     0.83340
O479        O  0.09439126  0.07856113  0.91674819    -0.67280
Ni480      Ni  0.10199517  0.05182052  0.55926138     1.27450
Ni481      Ni  0.07395647  0.11268755  0.52180925     1.26060
H482        H  0.10623922  0.12406788  0.96914395     0.37880
O483        O  0.06677959  0.11605725  0.64531872    -0.82070
O484        O  0.06827946  0.10796803  0.82408883    -0.66760
O485        O  0.08646832  0.11512135  0.72109361    -1.13360
C486        C  0.09059968  0.01520872  0.75299312     1.04820
O487        O  0.11323250  0.08233752  0.84092721    -0.79970
O488        O  0.14696339  0.05583998  0.78959469    -0.67550
Ni489      Ni  0.05438393  0.13437565  0.68496892     1.34870
C490        C  0.15486034  0.06196596  0.75657203     0.83550
O491        O  0.07028973  0.15254786  0.77019790    -0.80510
O492        O  0.03769981  0.15795735  0.71692344    -0.90780
C493        C  0.08848811  0.09519166  0.84983055     0.83130
O494        O  0.02279017  0.10587247  0.69856968    -0.68980
O495        O  0.09416441  0.02026472  0.78634942    -0.88270
C496        C  0.01022862  0.10422286  0.72930781     0.83960
C497        C  0.04775901  0.16568040  0.74796129     1.05520
H498        H  0.05655134  0.06583647  0.77150883     0.37330
O499        O  0.07885864  0.07387524  0.77068184    -1.10930
O500        O  0.13576547  0.07514507  0.73073692    -0.67580
Ni501      Ni  0.08785619  0.07479253  0.72023470     1.26350
O502        O  0.02745996  0.10872295  0.75953347    -0.67810
O503        O  0.08879543  0.03397704  0.72451458    -0.80100
C504        C  0.08389687  0.09563079  0.63990452     0.83340
O505        O  0.09546576  0.07754555  0.66686556    -0.67280
Ni506      Ni  0.10428722  0.05242549  0.81050041     1.27450
Ni507      Ni  0.07573912  0.11281981  0.77183803     1.26060
H508        H  0.10846191  0.12354658  0.71915498     0.37880
O509        O  0.08887737  0.38379567  0.59989527    -0.82070
O510        O  0.07651125  0.39354807  0.91901930    -0.66760
O511        O  0.10521999  0.38917069  0.52545102    -1.13360
C512        C  0.09236813  0.48635980  0.49704238     1.04820
O513        O  0.11717505  0.42443802  0.90890337    -0.79970
O514        O  0.14776878  0.43411620  0.97216877    -0.67550
Ni515      Ni  0.08222050  0.36365124  0.55901781     1.34870
C516        C  0.15885806  0.44656663  0.99902287     0.83550
O517        O  0.08789956  0.34859781  0.97030274    -0.80510
O518        O  0.07243696  0.33765480  0.52620937    -0.90780
C519        C  0.09431778  0.40854278  0.89675278     0.83130
O520        O  0.04043348  0.38140268  0.54211075    -0.68980
O521        O  0.10628916  0.48177922  0.96880812    -0.88270
C522        C  0.02616580  0.38334412  0.50907314     0.83960
C523        C  0.07439226  0.33176018  0.99426358     1.05520
H524        H  0.06231208  0.43371293  0.96787628     0.37330
O525        O  0.08542019  0.42825587  0.97419554    -1.10930
O526        O  0.14333948  0.44278139  0.52758350    -0.67580
Ni527      Ni  0.09635431  0.42859316  0.52747348     1.26350
O528        O  0.04198164  0.38511240  0.98038279    -0.67810
O529        O  0.08492398  0.46735106  0.52277750    -0.80100
C530        C  0.09865617  0.40745407  0.60764861     0.83340
O531        O  0.10471605  0.42737687  0.58236889    -0.67280
Ni532      Ni  0.11154574  0.45106103  0.94156614     1.27450
Ni533      Ni  0.08886834  0.38913053  0.97235364     1.26060
H534        H  0.12907074  0.38588214  0.52926378     0.37880
O535        O  0.08842451  0.38028591  0.85024487    -0.82070
O536        O  0.08255624  0.39480943  0.66906696    -0.66760
O537        O  0.10531849  0.38802773  0.77643168    -1.13360
C538        C  0.09316443  0.48579514  0.74821067     1.04820
O539        O  0.12622004  0.42359663  0.66346423    -0.79970
O540        O  0.15601365  0.43828802  0.73124340    -0.67550
Ni541      Ni  0.08255552  0.36146771  0.80841659     1.34870
C542        C  0.16165239  0.44677433  0.76301549     0.83550
O543        O  0.08996874  0.34835279  0.71904264    -0.80510
O544        O  0.07344337  0.33688295  0.77418445    -0.90780
C545        C  0.10209982  0.40969007  0.64847453     0.83130
O546        O  0.04165384  0.37996487  0.79102252    -0.68980
O547        O  0.10860480  0.48134075  0.72104357    -0.88270
C548        C  0.02811799  0.38315312  0.75769108     0.83960
C549        C  0.07598041  0.33131636  0.74231632     1.05520
H550        H  0.06728370  0.43357238  0.71616445     0.37330
O551        O  0.08985695  0.42769667  0.72502071    -1.11130
O552        O  0.14135481  0.43960699  0.78671760    -0.67580
Ni553      Ni  0.09450470  0.42722271  0.77797020     1.26350
O554        O  0.04445375  0.38560741  0.72912963    -0.67810
O555        O  0.08378058  0.46654491  0.77276880    -0.80100
C556        C  0.09213187  0.40497045  0.85711883     0.83340
O557        O  0.09555115  0.42547164  0.83199975    -0.67280
Ni558      Ni  0.11848380  0.45079994  0.69600718     1.27450
Ni559      Ni  0.09204692  0.38876981  0.72267765     1.26060
H560        H  0.12925617  0.38543782  0.78142491     0.37880
O561        O  0.44351241  0.38197927  0.91594541    -0.82070
O562        O  0.43835554  0.38887512  0.58752861    -0.66760
O563        O  0.41104822  0.38084152  0.98322954    -1.13360
C564        C  0.39931325  0.47446815  0.97622872     1.04820
O565        O  0.39820710  0.42005472  0.59056682    -0.79970
O566        O  0.36042769  0.40998450  0.52784153    -0.67550
Ni567      Ni  0.43240902  0.35648353  0.95675474     1.34870
C568        C  0.34348935  0.41784407  0.99787589     0.83550
O569        O  0.44335910  0.34298311  0.54671187    -0.80510
O570        O  0.41968816  0.33038555  0.99535723    -0.90780
C571        C  0.42079475  0.40342220  0.60599468     0.83130
O572        O  0.47699285  0.36538117  0.97932682    -0.68980
O573        O  0.37829156  0.46262561  0.49643398    -0.88270
C574        C  0.48979296  0.38039584  0.00398389     0.83960
C575        C  0.44125827  0.32570881  0.52228292     1.05520
H576        H  0.44160940  0.43259734  0.52395735     0.37330
O577        O  0.42083817  0.42210503  0.52026363    -1.10930
O578        O  0.35920507  0.42047277  0.96837223    -0.67580
Ni579      Ni  0.41018923  0.41944035  0.96725837     1.26350
O580        O  0.47297069  0.39092555  0.52613609    -0.67810
O581        O  0.41376413  0.46005303  0.95573098    -0.80100
C582        C  0.42307267  0.39903181  0.89775462     0.83340
O583        O  0.40414163  0.41380900  0.91438132    -0.67280
Ni584      Ni  0.38859015  0.43981294  0.54256354     1.27450
Ni585      Ni  0.42784649  0.38284363  0.53529651     1.26060
H586        H  0.38794807  0.37443963  0.98282667     0.37880
O587        O  0.44441267  0.38259183  0.66426016    -0.82070
O588        O  0.43991487  0.38771579  0.83832033    -0.66760
O589        O  0.41368168  0.38129525  0.73275782    -1.13360
C590        C  0.40413706  0.47470510  0.72972316     1.04820
O591        O  0.39732011  0.41659542  0.84047763    -0.79970
O592        O  0.36383318  0.40847943  0.77573186    -0.67550
Ni593      Ni  0.43421612  0.35701095  0.70548053     1.34870
C594        C  0.34731745  0.41766033  0.74617147     0.83550
O595        O  0.44543089  0.34247832  0.79614334    -0.80510
O596        O  0.42222692  0.33065636  0.74420506    -0.90780
C597        C  0.42067850  0.40118410  0.85647795     0.83130
O598        O  0.47884986  0.36613633  0.72730326    -0.68980
O599        O  0.38287543  0.46225795  0.74894580    -0.88270
C600        C  0.49180309  0.38052066  0.75258001     0.83960
C601        C  0.44374957  0.32575335  0.77116686     1.05520
H602        H  0.44458737  0.43191662  0.77648286     0.37330
O603        O  0.42389714  0.42153241  0.77163275    -1.10930
O604        O  0.36343000  0.42173102  0.71728003    -0.67580
Ni605      Ni  0.41413540  0.42020565  0.71810970     1.26350
O606        O  0.47535962  0.39008824  0.77599119    -0.67810
O607        O  0.41870434  0.46093826  0.70855397    -0.80100
C608        C  0.42467746  0.40078307  0.64725961     0.83340
O609        O  0.40769532  0.41618343  0.66496089    -0.67280
Ni610      Ni  0.39065696  0.43796886  0.79370984     1.27450
Ni611      Ni  0.43020203  0.38228635  0.78538917     1.26060
H612        H  0.39044273  0.37525551  0.73195533     0.37880
O613        O  0.44651163  0.27234407  0.94217606    -0.82070
O614        O  0.03288231  0.26494026  0.58359377    -0.66760
O615        O  0.00409627  0.25582689  0.98365571    -1.13360
C616        C  0.44188150  0.17805153  0.02241517     1.04820
O617        O  0.03213734  0.22088738  0.59871948    -0.79970
O618        O  0.03202334  0.19079017  0.54491449    -0.67550
Ni619      Ni  0.99175955  0.28730615  0.94936719     1.34870
C620        C  0.02636116  0.18715166  0.51142600     0.83550
O621        O  0.04847107  0.29109809  0.51801764    -0.80510
O622        O  0.03629923  0.30439683  0.95696404    -0.90780
C623        C  0.02302684  0.24458938  0.60474532     0.83130
O624        O  0.47508267  0.31065220  0.98120229    -0.68980
O625        O  0.46588064  0.17347726  0.54855288    -0.88270
C626        C  0.46880123  0.30745678  0.01458920     0.83960
C627        C  0.05370018  0.30648135  0.48796626     1.05520
H628        H  0.46565812  0.23926021  0.55269174     0.37330
O629        O  0.48491060  0.23198390  0.54349508    -1.10930
O630        O  0.00160863  0.19858416  0.99014865    -0.67580
Ni631      Ni  0.47004503  0.22839713  0.99479707     1.26350
O632        O  0.48254130  0.28833066  0.53764285    -0.67810
O633        O  0.43578954  0.20227096  0.00678744    -0.80100
C634        C  0.44124107  0.24955033  0.92818066     0.83340
O635        O  0.45339647  0.22738871  0.94580572    -0.67280
Ni636      Ni  0.49856115  0.19845490  0.57411389     1.27450
Ni637      Ni  0.01775091  0.26175223  0.53269155     1.26060
H638        H  0.02227984  0.24701082  0.97430364     0.37880
O639        O  0.44747277  0.27274843  0.69291597    -0.82070
O640        O  0.53580424  0.26517645  0.83230273    -0.66760
O641        O  0.00574617  0.25563992  0.73283061    -1.13360
C642        C  0.44460184  0.17818696  0.77234298     1.04820
O643        O  0.53550264  0.22113965  0.84782961    -0.79970
O644        O  0.03489234  0.19177155  0.79342936    -0.67550
Ni645      Ni  0.99320743  0.28707926  0.69857014     1.34870
C646        C  0.02837965  0.18749158  0.76027706     0.83550
O647        O  0.05060557  0.29067678  0.76601842    -0.80510
O648        O  0.03816238  0.30365969  0.70491744    -0.90780
C649        C  0.52650651  0.24486379  0.85393928     0.83130
O650        O  0.47813894  0.31110576  0.73049070    -0.68980
O651        O  0.46913194  0.17352177  0.79787206    -0.88270
C652        C  0.47139060  0.30759938  0.76367150     0.83960
C653        C  0.05569685  0.30590658  0.73580984     1.05520
H654        H  0.46851526  0.23932117  0.80298648     0.37330
O655        O  0.48749956  0.23205586  0.79328958    -1.10930
O656        O  0.00307461  0.19852857  0.73945851    -0.67580
Ni657      Ni  0.47179521  0.22848787  0.74484241     1.26350
O658        O  0.48484108  0.28826337  0.78664761    -0.67810
O659        O  0.43777292  0.20252509  0.75775808    -0.80100
C660        C  0.44100519  0.24986005  0.67942695     0.83340
O661        O  0.45392498  0.22769644  0.69627241    -0.67280
Ni662      Ni  0.50181000  0.19858496  0.82344514     1.27450
Ni663      Ni  0.02006352  0.26166444  0.78159668     1.26060
H664        H  0.02368972  0.24670323  0.72321276     0.37880
C665        C  0.97347724  0.22206007  0.87422953    -0.03030
C666        C  0.49348576  0.24690438  0.86762516     0.06650
C667        C  0.47774404  0.27345253  0.86506178    -0.03140
C668        C  0.44330245  0.27391682  0.86950775    -0.03140
C669        C  0.43035082  0.24991201  0.88828427     0.06790
C670        C  0.93892970  0.22500251  0.87598161    -0.03340
Br671      Br  0.90949633  0.19310647  0.88305510    -0.01890
Br672      Br  0.99268799  0.18581182  0.89139472    -0.01960
Br673      Br  0.41933213  0.30806212  0.86776885    -0.01920
Br674      Br  0.50298357  0.30834857  0.86331621    -0.01900
C675        C  0.96943130  0.22194171  0.62417826    -0.03030
C676        C  0.98966305  0.24671931  0.61755381     0.06650
C677        C  0.47411433  0.27338185  0.61510614    -0.03140
C678        C  0.43982393  0.27393537  0.62028925    -0.03140
C679        C  0.42754272  0.25013484  0.64012452     0.06790
C680        C  0.93509814  0.22520147  0.62716902    -0.03340
Br681      Br  0.90535985  0.19364163  0.63525375    -0.01890
Br682      Br  0.98836541  0.18556628  0.64135151    -0.01960
Br683      Br  0.41599301  0.30811630  0.61877547    -0.01920
Br684      Br  0.49954796  0.30819063  0.61375764    -0.01900
C685        C  0.25809220  0.04269008  0.88258143    -0.03030
C686        C  0.26839925  0.51436016  0.89264042     0.06650
C687        C  0.30302949  0.50758019  0.89134799    -0.03140
C688        C  0.32296734  0.52753166  0.87287421    -0.03140
C689        C  0.30429073  0.04645101  0.84725530     0.06790
C690        C  0.27958697  0.06011634  0.86195783    -0.03340
Br691      Br  0.26793346  0.09721145  0.84063680    -0.01890
Br692      Br  0.21409130  0.05621770  0.88748277    -0.01960
Br693      Br  0.36739631  0.51675180  0.86452933    -0.01920
Br694      Br  0.32129864  0.47009954  0.90243981    -0.01900
C695        C  0.23027783  0.01413921  0.62559688    -0.03030
C696        C  0.25967286  0.00403365  0.61342530     0.06650
C697        C  0.26254776  0.47509120  0.61090712    -0.03140
C698        C  0.23310772  0.45829061  0.61059239    -0.03140
C699        C  0.20744368  0.46785248  0.62898045     0.06790
C700        C  0.20152168  0.99661586  0.62314727    -0.03340
Br701      Br  0.15728077  0.01001854  0.62575283    -0.01890
Br702      Br  0.22666524  0.05336651  0.62959034    -0.01960
Br703      Br  0.23456341  0.41920406  0.60584022    -0.01920
Br704      Br  0.30634470  0.45874540  0.61778474    -0.01900
O705        O  0.21315551  0.99450621  0.39359240    -0.82070
O706        O  0.23580525  0.51827909  0.05764540    -0.66760
O707        O  0.23395662  0.51029899  0.46050045    -1.13360
C708        C  0.31541967  0.93712210  0.50217871     1.04820
O709        O  0.29047941  0.51556210  0.06323799    -0.79970
O710        O  0.32922036  0.50079083  0.01784113    -0.67550
Ni711      Ni  0.19217893  0.51141707  0.43009970     1.34870
C712        C  0.32185581  0.51489119  0.98709478     0.83550
O713        O  0.20633111  0.54571379  0.00244568    -0.80510
O714        O  0.16714474  0.52968502  0.46304325    -0.90780
C715        C  0.26343270  0.51717313  0.07749106     0.83130
O716        O  0.18378025  0.97626415  0.45580843    -0.68980
O717        O  0.31543431  0.94545961  0.03419642    -0.88270
C718        C  0.18129546  0.97088455  0.49030426     0.83960
C719        C  0.17641415  0.54506873  0.98843935     1.05520
H720        H  0.24880240  0.96513016  0.02719963     0.37330
O721        O  0.26172930  0.98098260  0.01748577    -1.10930
O722        O  0.29896139  0.50687158  0.46327032    -0.67580
Ni723      Ni  0.26331327  0.97755678  0.46795604     1.26350
O724        O  0.19453670  0.98686684  0.01420503    -0.67810
O725        O  0.29582956  0.94738921  0.47449966    -0.80100
C726        C  0.24457276  0.99130063  0.39777229     0.83340
O727        O  0.25565137  0.97073581  0.41843605    -0.67280
Ni728      Ni  0.30183969  0.98026088  0.04940081     1.27450
Ni729      Ni  0.23337752  0.51350928  0.00948992     1.26060
H730        H  0.24607903  0.52699166  0.45232100     0.37880
O731        O  0.19560770  0.96715616  0.19030678    -0.82070
O732        O  0.25976891  0.51878555  0.31787627    -0.66760
O733        O  0.23246122  0.50493226  0.22252243    -1.13360
C734        C  0.32016293  0.93695901  0.25160415     1.04820
O735        O  0.31070370  0.52145861  0.29851722    -0.79970
O736        O  0.33458616  0.49475673  0.24884949    -0.67550
Ni737      Ni  0.18882786  0.50487314  0.19977974     1.34870
C738        C  0.32230050  0.51370392  0.22571911     0.83550
O739        O  0.20539097  0.53662106  0.27155724    -0.80510
O740        O  0.18281756  0.54223351  0.21227066    -0.90780
C741        C  0.28971412  0.52979627  0.31784035     0.83130
O742        O  0.16976411  0.99276312  0.24317204    -0.68980
O743        O  0.32173674  0.94516806  0.28392067    -0.88270
C744        C  0.18157047  0.97321452  0.26554065     0.83960
C745        C  0.18419316  0.54798812  0.24581819     1.05520
H746        H  0.26431197  0.96418296  0.28603649     0.37330
O747        O  0.27268142  0.98092364  0.27267506    -1.10930
O748        O  0.29454707  0.50822251  0.20702581    -0.67580
Ni749      Ni  0.26484757  0.97582808  0.22366609     1.26350
O750        O  0.20922931  0.97738074  0.28577817    -0.67810
O751        O  0.30034765  0.94825213  0.22446835    -0.80100
C752        C  0.21715370  0.96331421  0.16859863     0.83340
O753        O  0.24848534  0.96710263  0.17808342    -0.67280
Ni754      Ni  0.31638479  0.98322108  0.29303322     1.27450
Ni755      Ni  0.24054889  0.50940803  0.27192524     1.26060
H756        H  0.24132610  0.52188034  0.21019732     0.37880
O757        O  0.38316886  0.56286458  0.07787297    -0.82070
O758        O  0.39756060  0.56627015  0.40229935    -0.66760
O759        O  0.41496791  0.56048492  0.01026655    -1.13360
C760        C  0.42541670  0.65481339  0.50378989     1.04820
O761        O  0.40813834  0.61161107  0.38695078    -0.79970
O762        O  0.45658361  0.60685565  0.44479838    -0.67550
Ni763      Ni  0.38905681  0.53737041  0.04185766     1.34870
C764        C  0.47210970  0.60353019  0.47701705     0.83550
O765        O  0.41425797  0.52301416  0.45606650    -0.80510
O766        O  0.39503178  0.50935204  0.01109746    -0.90780
C767        C  0.40171641  0.58713622  0.37797266     0.83130
O768        O  0.35087752  0.55238736  0.01173852    -0.68980
O769        O  0.43269634  0.65224406  0.47138723    -0.88270
C770        C  0.34156073  0.54155017  0.48252729     0.83960
C771        C  0.40459686  0.50413664  0.48057008     1.05520
H772        H  0.37059391  0.60428451  0.45800122     0.37330
O773        O  0.39449874  0.60112052  0.46191010    -1.10930
O774        O  0.45749632  0.60339632  0.00652440    -0.67580
Ni775      Ni  0.41014109  0.59858117  0.01474048     1.26350
O776        O  0.35711906  0.54873894  0.45446173    -0.67810
O777        O  0.40655306  0.63721361  0.01998841    -0.80100
C778        C  0.40419627  0.58086962  0.08955014     0.83340
O779        O  0.42313633  0.59416461  0.06747294    -0.67280
Ni780      Ni  0.41815917  0.62905798  0.43209402     1.27450
Ni781      Ni  0.40430614  0.56229739  0.45649643     1.26060
H782        H  0.43810141  0.55510914  0.01650012     0.37880
O783        O  0.37709685  0.56861686  0.32185562    -0.82070
O784        O  0.40361157  0.56548962  0.15392098    -0.66760
O785        O  0.41414669  0.56142673  0.26065220    -1.13360
C786        C  0.42819352  0.65516370  0.25327666     1.04820
O787        O  0.41048272  0.61120802  0.13704919    -0.79970
O788        O  0.45848868  0.60584673  0.19529917    -0.67550
Ni789      Ni  0.38542145  0.54000742  0.29000111     1.34870
C790        C  0.47375484  0.60277525  0.22763371     0.83550
O791        O  0.41762735  0.52332826  0.20916279    -0.80510
O792        O  0.39513153  0.51033900  0.26277854    -0.90780
C793        C  0.40613962  0.58619053  0.12920235     0.83130
O794        O  0.34720207  0.55159329  0.25589882    -0.68980
O795        O  0.43616797  0.65215536  0.22123836    -0.88270
C796        C  0.34101832  0.54137017  0.22546031     0.83960
C797        C  0.40725723  0.50469248  0.23354067     1.05520
H798        H  0.37262534  0.60472976  0.20640849     0.37330
O799        O  0.39650729  0.60163408  0.21119027    -1.10930
O800        O  0.45878522  0.60302282  0.25697302    -0.67580
Ni801      Ni  0.41081337  0.59952136  0.26424491     1.26350
O802        O  0.35995020  0.54904732  0.20045704    -0.67810
O803        O  0.40823371  0.63825257  0.26880692    -0.80100
C804        C  0.40040532  0.58314584  0.33736026     0.83340
O805        O  0.42214769  0.59491853  0.31740660    -0.67280
Ni806      Ni  0.42107929  0.62901369  0.18184159     1.27450
Ni807      Ni  0.40699736  0.56258398  0.20739049     1.26060
H808        H  0.43675983  0.55535346  0.26886539     0.37880
O809        O  0.06529848  0.61684941  0.39499213    -0.82070
O810        O  0.06752490  0.60711547  0.07443218    -0.66760
O811        O  0.08427457  0.61553840  0.47094888    -1.13360
C812        C  0.08875653  0.51556298  0.50170013     1.04820
O813        O  0.11284992  0.58151992  0.08961514    -0.79970
O814        O  0.14410030  0.55280457  0.03693376    -0.67550
Ni815      Ni  0.05274806  0.63510667  0.43485518     1.34870
C816        C  0.15069764  0.56009006  0.00366715     0.83550
O817        O  0.06853962  0.65235823  0.02097842    -0.80510
O818        O  0.03633533  0.65843287  0.46737906    -0.90780
C819        C  0.08844445  0.59428398  0.09954565     0.83130
O820        O  0.02104885  0.60668795  0.44804979    -0.68980
O821        O  0.08969637  0.52025155  0.03506924    -0.88270
C822        C  0.00848857  0.60484601  0.47878239     0.83960
C823        C  0.04609797  0.66568361  0.99880423     1.05520
H824        H  0.05426587  0.56593038  0.02047611     0.37330
O825        O  0.07664325  0.57386383  0.01988675    -1.10930
O826        O  0.13304748  0.57704350  0.48124304    -0.67580
Ni827      Ni  0.08587552  0.57533957  0.46959427     1.26350
O828        O  0.02567101  0.60888082  0.00929282    -0.67810
O829        O  0.08799693  0.53454467  0.47349636    -0.80100
C830        C  0.08292903  0.59660972  0.38980335     0.83340
O831        O  0.09439222  0.57856178  0.41674836    -0.67280
Ni832      Ni  0.10199507  0.55182000  0.05926100     1.27450
Ni833      Ni  0.07395619  0.61268696  0.02180909     1.26060
H834        H  0.10623928  0.62406866  0.46914384     0.37880
O835        O  0.06678121  0.61605767  0.14531859    -0.82070
O836        O  0.06828068  0.60796820  0.32408869    -0.66760
O837        O  0.08646989  0.61512140  0.22109357    -1.13360
C838        C  0.09060110  0.51520883  0.25299290     1.04820
O839        O  0.11323369  0.58233770  0.34092750    -0.79970
O840        O  0.14696524  0.55584086  0.28959450    -0.67550
Ni841      Ni  0.05438572  0.63437605  0.18496887     1.34870
C842        C  0.15486180  0.56196608  0.25657154     0.83550
O843        O  0.07029137  0.65254798  0.27019795    -0.80510
O844        O  0.03770162  0.65795773  0.21692343    -0.90780
C845        C  0.08848918  0.59519188  0.34983059     0.83130
O846        O  0.02279164  0.60587306  0.19856930    -0.68980
O847        O  0.09416693  0.52026489  0.28634918    -0.88270
C848        C  0.01023014  0.60422318  0.22930747     0.83960
C849        C  0.04776068  0.66568059  0.24796142     1.05520
H850        H  0.05655285  0.56583655  0.27150915     0.37330
O851        O  0.07886011  0.57387533  0.27068188    -1.10930
O852        O  0.13576657  0.57514451  0.23073614    -0.67580
Ni853      Ni  0.08785720  0.57479254  0.22023457     1.26350
O854        O  0.02746148  0.60872312  0.25953321    -0.67810
O855        O  0.08879591  0.53397710  0.22451433    -0.80100
C856        C  0.08389764  0.59563075  0.13990430     0.83340
O857        O  0.09546618  0.57754534  0.16686530    -0.67280
Ni858      Ni  0.10428908  0.55242571  0.31050032     1.27450
Ni859      Ni  0.07574062  0.61281992  0.27183798     1.26060
H860        H  0.10846360  0.62354642  0.21915500     0.37880
O861        O  0.08887734  0.88379509  0.09989553    -0.82070
O862        O  0.07651171  0.89354886  0.41901936    -0.66760
O863        O  0.10521994  0.88916992  0.02545122    -1.13360
C864        C  0.09236793  0.98635905  0.99704245     1.04820
O865        O  0.11717574  0.92443867  0.40890371    -0.79970
O866        O  0.14776935  0.93411704  0.47216904    -0.67550
Ni867      Ni  0.08222049  0.86365052  0.05901812     1.34870
C868        C  0.15885850  0.94656751  0.49902315     0.83550
O869        O  0.08789948  0.84859850  0.47030277    -0.80510
O870        O  0.07243704  0.83765396  0.02620978    -0.90780
C871        C  0.09431855  0.90854340  0.39675299     0.83130
O872        O  0.04043341  0.88140185  0.04211095    -0.68980
O873        O  0.10628953  0.98177988  0.46880834    -0.88270
C874        C  0.02616577  0.88334326  0.00907331     0.83960
C875        C  0.07439205  0.83176090  0.49426354     1.05520
H876        H  0.06231257  0.93371370  0.46787648     0.37330
O877        O  0.08542065  0.92825657  0.47419575    -1.10930
O878        O  0.14333935  0.94278055  0.02758348    -0.67580
Ni879      Ni  0.09635422  0.92859239  0.02747362     1.26350
O880        O  0.04198174  0.88511326  0.48038289    -0.67810
O881        O  0.08492387  0.96735031  0.02277762    -0.80100
C882        C  0.09865641  0.90745346  0.10764877     0.83340
O883        O  0.10471626  0.92737618  0.08236896    -0.67280
Ni884      Ni  0.11154624  0.95106171  0.44156639     1.27450
Ni885      Ni  0.08886853  0.88913122  0.47235377     1.26060
H886        H  0.12907069  0.88588138  0.02926396     0.37880
O887        O  0.08842559  0.88028629  0.35024535    -0.82070
O888        O  0.08255726  0.89480889  0.16906746    -0.66760
O889        O  0.10531999  0.88802771  0.27643211    -1.13360
C890        C  0.09316594  0.98579512  0.24821071     1.04820
O891        O  0.12622068  0.92359640  0.16346395    -0.79970
O892        O  0.15601496  0.93828810  0.23124266    -0.67550
Ni893      Ni  0.08255727  0.86146771  0.30841738     1.34870
C894        C  0.16165385  0.94677430  0.26301482     0.83550
O895        O  0.08997022  0.84835251  0.21904344    -0.80510
O896        O  0.07344563  0.83688259  0.27418561    -0.90780
C897        C  0.10210048  0.90968958  0.14847467     0.83130
O898        O  0.04165526  0.87996430  0.29102312    -0.68980
O899        O  0.10860601  0.98134067  0.22104341    -0.88270
C900        C  0.02811946  0.88315272  0.25769168     0.83960
C901        C  0.07598236  0.83131600  0.24231742     1.05520
H902        H  0.06728489  0.93357207  0.21616483     0.37330
O903        O  0.08985820  0.92769646  0.22502093    -1.11130
O904        O  0.14135644  0.93960697  0.28671716    -0.67580
Ni905      Ni  0.09450626  0.92722272  0.27797040     1.26350
O906        O  0.04445519  0.88560710  0.22913024    -0.67810
O907        O  0.08378219  0.96654492  0.27276892    -0.80100
C908        C  0.09213311  0.90497086  0.35711912     0.83340
O909        O  0.09555292  0.92547189  0.33199994    -0.67280
Ni910      Ni  0.11848469  0.95079977  0.19600693     1.27450
Ni911      Ni  0.09204828  0.88876955  0.22267814     1.26060
H912        H  0.12925769  0.88543783  0.28142524     0.37880
O913        O  0.44351300  0.88197971  0.41594578    -0.82070
O914        O  0.43835591  0.88887443  0.08752868    -0.66760
O915        O  0.41104836  0.88084223  0.48322955    -1.13360
C916        C  0.39931342  0.97446881  0.47622891     1.04820
O917        O  0.39820805  0.92005448  0.09056719    -0.79970
O918        O  0.36042791  0.90998412  0.02784236    -0.67550
Ni919      Ni  0.43240917  0.85648411  0.45675498     1.34870
C920        C  0.34348938  0.91784479  0.49787533     0.83550
O921        O  0.44335903  0.84298247  0.04671186    -0.80510
O922        O  0.41968792  0.83038629  0.49535740    -0.90780
C923        C  0.42079551  0.90342171  0.10599490     0.83130
O924        O  0.47699296  0.86538170  0.47932723    -0.68980
O925        O  0.37829165  0.96262503  0.99643426    -0.88270
C926        C  0.48979302  0.88039654  0.50398412     0.83960
C927        C  0.44125830  0.82570822  0.02228284     1.05520
H928        H  0.44160969  0.93259671  0.02395728     0.37330
O929        O  0.42083840  0.92210446  0.02026373    -1.10930
O930        O  0.35920523  0.92047355  0.46837176    -0.67580
Ni931      Ni  0.41018949  0.91944106  0.46725843     1.26350
O932        O  0.47297073  0.89092481  0.02613614    -0.67810
O933        O  0.41376443  0.96005373  0.45573122    -0.80100
C934        C  0.42307358  0.89903242  0.39775485     0.83340
O935        O  0.40414244  0.91380971  0.41438133    -0.67280
Ni936      Ni  0.38859066  0.93981254  0.04256387     1.27450
Ni937      Ni  0.42784658  0.88284302  0.03529660     1.26060
H938        H  0.38794818  0.87444041  0.48282656     0.37880
O939        O  0.44441382  0.88259139  0.16426033    -0.82070
O940        O  0.43991601  0.88771602  0.33832078    -0.66760
O941        O  0.41368318  0.88129505  0.23275825    -1.13360
C942        C  0.40413879  0.97470488  0.22972291     1.04820
O943        O  0.39732202  0.91659656  0.34047777    -0.79970
O944        O  0.36383516  0.90847943  0.27573251    -0.67550
Ni945      Ni  0.43421758  0.85701066  0.20548104     1.34870
C946        C  0.34731915  0.91766001  0.24617216     0.83550
O947        O  0.44543228  0.84247834  0.29614404    -0.80510
O948        O  0.42222861  0.83065613  0.24420577    -0.90780
C949        C  0.42067984  0.90118473  0.35647821     0.83130
O950        O  0.47885128  0.86613629  0.22730362    -0.68980
O951        O  0.38287695  0.96225772  0.24894511    -0.88270
C952        C  0.49180455  0.88052045  0.25258053     0.83960
C953        C  0.44375120  0.82575329  0.27116767     1.05520
H954        H  0.44458909  0.93191660  0.27648280     0.37330
O955        O  0.42389879  0.92153245  0.27163284    -1.10930
O956        O  0.36343147  0.92173061  0.21728051    -0.67580
Ni957      Ni  0.41413689  0.92020541  0.21810984     1.26350
O958        O  0.47536112  0.89008802  0.27599177    -0.67810
O959        O  0.41870600  0.96093802  0.20855370    -0.80100
C960        C  0.42467851  0.90078258  0.14725982     0.83340
O961        O  0.40769650  0.91618299  0.16496115    -0.67280
Ni962      Ni  0.39065868  0.93796930  0.29370963     1.27450
Ni963      Ni  0.43020345  0.88228638  0.28538960     1.26060
H964        H  0.39044424  0.87525529  0.23195579     0.37880
O965        O  0.44651138  0.77234470  0.44217583    -0.82070
O966        O  0.03288210  0.76493941  0.08359403    -0.66760
O967        O  0.00409605  0.75582761  0.48365542    -1.13360
C968        C  0.44188142  0.67805205  0.52241460     1.04820
O969        O  0.03213651  0.72088656  0.09872009    -0.79970
O970        O  0.03202276  0.69078931  0.04491501    -0.67550
Ni971      Ni  0.99175924  0.78730691  0.44936701     1.34870
C972        C  0.02636078  0.68715096  0.01142643     0.83550
O973        O  0.04847104  0.79109725  0.01801801    -0.80510
O974        O  0.03629887  0.80439769  0.45696395    -0.90780
C975        C  0.02302621  0.74458871  0.10474558     0.83130
O976        O  0.47508223  0.81065283  0.48120219    -0.68980
O977        O  0.46587996  0.67347666  0.04855299    -0.88270
C978        C  0.46880090  0.80745740  0.51458914     0.83960
C979        C  0.05370027  0.80648048  0.98796664     1.05520
H980        H  0.46565770  0.73925966  0.05269180     0.37330
O981        O  0.48491024  0.73198325  0.04349525    -1.10930
O982        O  0.00160852  0.69858483  0.49014810    -0.67580
Ni983      Ni  0.47004485  0.72839774  0.49479665     1.26350
O984        O  0.48254119  0.78832999  0.03764298    -0.67810
O985        O  0.43578941  0.70227148  0.50678689    -0.80100
C986        C  0.44124100  0.74955102  0.42818024     0.83340
O987        O  0.45339634  0.72738938  0.44580528    -0.67280
Ni988      Ni  0.49856041  0.69845420  0.07411419     1.27450
Ni989      Ni  0.01775073  0.76175146  0.03269181     1.26060
H990        H  0.02227966  0.74701160  0.47430332     0.37880
O991        O  0.44747438  0.77274895  0.19291708    -0.82070
O992        O  0.53580553  0.76517585  0.33230379    -0.66760
O993        O  0.00574776  0.75563991  0.23283150    -1.13360
C994        C  0.44460318  0.67818676  0.27234271     1.04820
O995        O  0.53550334  0.72113903  0.34783074    -0.79970
O996        O  0.03489360  0.69177129  0.29342986    -0.67550
Ni997      Ni  0.99320925  0.78707937  0.19857124     1.34870
C998        C  0.02838115  0.68749158  0.26027740     0.83550
O999        O  0.05060706  0.79067661  0.26601967    -0.80510
O1000       O  0.03816442  0.80365931  0.20491855    -0.90780
C1001       C  0.52650731  0.74486328  0.35394018     0.83130
O1002       O  0.47814132  0.81110603  0.23049198    -0.68980
O1003       O  0.46913317  0.67352145  0.29787188    -0.88270
C1004       C  0.47139241  0.80759937  0.26367256     0.83960
C1005       C  0.05569867  0.80590627  0.23581107     1.05520
H1006       H  0.46851650  0.73932081  0.30298688     0.37330
O1007       O  0.48750088  0.73205553  0.29329013    -1.10930
O1008       O  0.00307620  0.69852866  0.23945878    -0.67580
Ni1009     Ni  0.47179672  0.72848786  0.24484285     1.26350
O1010       O  0.48484239  0.78826304  0.28664853    -0.67810
O1011       O  0.43777435  0.70252495  0.25775796    -0.80100
C1012       C  0.44100642  0.74986066  0.17942797     0.83340
O1013       O  0.45392659  0.72769696  0.19627280    -0.67280
Ni1014     Ni  0.50181101  0.69858448  0.32344551     1.27450
Ni1015     Ni  0.02006494  0.76166417  0.28159764     1.26060
H1016       H  0.02369135  0.74670326  0.22321366     0.37880
C1017       C  0.97347727  0.72206025  0.37422950    -0.03030
C1018       C  0.49348638  0.74690427  0.36762555     0.06650
C1019       C  0.47774520  0.77345266  0.36506213    -0.03140
C1020       C  0.44330353  0.77391747  0.36950758    -0.03140
C1021       C  0.43035121  0.74991283  0.38828375     0.06790
C1022       C  0.93892974  0.72500320  0.37598117    -0.03340
Br1023     Br  0.90949561  0.69310760  0.38305414    -0.01890
Br1024     Br  0.99268708  0.68581164  0.39139454    -0.01960
Br1025     Br  0.41933395  0.80806313  0.36776883    -0.01920
Br1026     Br  0.50298545  0.80834835  0.36331700    -0.01900
C1027       C  0.96943007  0.72194182  0.12417831    -0.03030
C1028       C  0.98966237  0.74671911  0.11755376     0.06650
C1029       C  0.47411430  0.77338194  0.11510638    -0.03140
C1030       C  0.43982411  0.77393599  0.12029026    -0.03140
C1031       C  0.42754280  0.75013567  0.14012585     0.06790
C1032       C  0.93509715  0.72520220  0.12716989    -0.03340
Br1033     Br  0.90535817  0.69364290  0.13525522    -0.01890
Br1034     Br  0.98836336  0.68556605  0.14135133    -0.01960
Br1035     Br  0.41599410  0.80811730  0.11877716    -0.01920
Br1036     Br  0.49954867  0.80819036  0.11375757    -0.01900
C1037       C  0.25809266  0.54269074  0.38258104    -0.03030
C1038       C  0.26839981  0.01436098  0.39264087     0.06650
C1039       C  0.30303000  0.00758079  0.39134872    -0.03140
C1040       C  0.32296809  0.02753206  0.37287498    -0.03140
C1041       C  0.30429143  0.54645111  0.34725522     0.06790
C1042       C  0.27958750  0.56011669  0.36195713    -0.03340
Br1043     Br  0.26793388  0.59721152  0.34063491    -0.01890
Br1044     Br  0.21409195  0.55621872  0.38748252    -0.01960
Br1045     Br  0.36739718  0.01675199  0.36453091    -0.01920
Br1046     Br  0.32129868  0.97009998  0.40244052    -0.01900
C1047       C  0.23028350  0.51414167  0.12559773    -0.03030
C1048       C  0.25967816  0.50403639  0.11342525     0.06650
C1049       C  0.26255323  0.97509345  0.11090848    -0.03140
C1050       C  0.23311324  0.95829268  0.11059225    -0.03140
C1051       C  0.20744829  0.96785423  0.12897944     0.06790
C1052       C  0.20152709  0.49661857  0.12314706    -0.03340
Br1053     Br  0.15728612  0.51002153  0.12575167    -0.01890
Br1054     Br  0.22667118  0.55336890  0.12959135    -0.01960
Br1055     Br  0.23456999  0.91920617  0.10584017    -0.01920
Br1056     Br  0.30635063  0.95874848  0.11778635    -0.01900
O1057       O  0.21315526  0.99450501  0.89359223    -0.82070
O1058       O  0.23580445  0.51828036  0.55764549    -0.66760
O1059       O  0.23395611  0.51029791  0.96050013    -1.13360
C1060       C  0.31541928  0.93712103  0.00217910     1.04820
O1061       O  0.29047846  0.51556164  0.56324151    -0.79970
O1062       O  0.32921923  0.50079387  0.51784313    -0.67550
Ni1063     Ni  0.19217858  0.51141602  0.93009934     1.34870
C1064       C  0.32185569  0.51489258  0.48709533     0.83550
O1065       O  0.20633149  0.54571503  0.50244553    -0.80510
O1066       O  0.16714450  0.52968419  0.96304276    -0.90780
C1067       C  0.26343084  0.51717250  0.57749284     0.83130
O1068       O  0.18377984  0.97626320  0.95580826    -0.68980
O1069       O  0.31543605  0.94546146  0.53419569    -0.88270
C1070       C  0.18129518  0.97088357  0.99030412     0.83960
C1071       C  0.17641442  0.54506968  0.48843966     1.05520
H1072       H  0.24880239  0.96513122  0.52720022     0.37330
O1073       O  0.26172943  0.98098358  0.51748639    -1.10930
O1074       O  0.29896063  0.50687133  0.96326998    -0.67580
Ni1075     Ni  0.26331322  0.97755595  0.96795557     1.26350
O1076       O  0.19453681  0.98686797  0.51420509    -0.67810
O1077       O  0.29583026  0.94738887  0.97449948    -0.80100
C1078       C  0.24457257  0.99129971  0.89777194     0.83340
O1079       O  0.25565148  0.97073494  0.91843558    -0.67280
Ni1080     Ni  0.30183975  0.98026157  0.54940184     1.27450
Ni1081     Ni  0.23337772  0.51351043  0.50949018     1.26060
H1082       H  0.24607830  0.52699071  0.95232074     0.37880
O1083       O  0.19560543  0.96715562  0.69030853    -0.82070
O1084       O  0.25976773  0.51878586  0.81787605    -0.66760
O1085       O  0.23245925  0.50493228  0.72252245    -1.13360
C1086       C  0.32016139  0.93695938  0.75160352     1.04820
O1087       O  0.31070226  0.52145909  0.79851641    -0.79970
O1088       O  0.33458427  0.49475708  0.74884829    -0.67550
Ni1089     Ni  0.18882564  0.50487279  0.69978058     1.34870
C1090       C  0.32229845  0.51370434  0.72571816     0.83550
O1091       O  0.20538942  0.53662117  0.77155734    -0.80510
O1092       O  0.18281558  0.54223334  0.71227087    -0.90780
C1093       C  0.28971296  0.52979653  0.81784004     0.83130
O1094       O  0.16976250  0.99276327  0.74317344    -0.68980
O1095       O  0.32173539  0.94516853  0.78391999    -0.88270
C1096       C  0.18156901  0.97321457  0.76554171     0.83960
C1097       C  0.18419147  0.54798814  0.74581834     1.05520
H1098       H  0.26431075  0.96418326  0.78603629     0.37330
O1099       O  0.27268001  0.98092395  0.77267470    -1.10930
O1100       O  0.29454491  0.50822286  0.70702502    -0.67580
Ni1101     Ni  0.26484569  0.97582825  0.72366577     1.26350
O1102       O  0.20922814  0.97738075  0.78577873    -0.67810
O1103       O  0.30034592  0.94825239  0.72446777    -0.80100
C1104       C  0.21715072  0.96331332  0.66859981     0.83340
O1105       O  0.24848254  0.96710239  0.67808331    -0.67280
Ni1106     Ni  0.31638347  0.98322157  0.79303241     1.27450
Ni1107     Ni  0.24054740  0.50940820  0.77192518     1.26060
H1108       H  0.24132387  0.52188037  0.71019707     0.37880
O1109       O  0.38316803  0.56286543  0.57787244    -0.82070
O1110       O  0.39755929  0.56626988  0.90229927    -0.66760
O1111       O  0.41496795  0.56048541  0.51026667    -1.13360
C1112       C  0.42541641  0.65481289  0.00379017     1.04820
O1113       O  0.40813751  0.61161077  0.88695097    -0.79970
O1114       O  0.45658326  0.60685536  0.94479830    -0.67550
Ni1115     Ni  0.38905603  0.53737125  0.54185721     1.34870
C1116       C  0.47210945  0.60352983  0.97701695     0.83550
O1117       O  0.41425726  0.52301368  0.95606617    -0.80510
O1118       O  0.39503103  0.50935280  0.51109707    -0.90780
C1119       C  0.40171507  0.58713603  0.87797266     0.83130
O1120       O  0.35087778  0.55238920  0.51173726    -0.68980
O1121       O  0.43269594  0.65224363  0.97138745    -0.88270
C1122       C  0.34156061  0.54154895  0.98252799     0.83960
C1123       C  0.40459690  0.50413604  0.98057007     1.05520
H1124       H  0.37059351  0.60428411  0.95800168     0.37330
O1125       O  0.39449833  0.60112009  0.96191036    -1.10930
O1126       O  0.45749650  0.60339673  0.50652447    -0.67580
Ni1127     Ni  0.41014117  0.59858170  0.51474033     1.26350
O1128       O  0.35711857  0.54873861  0.95446235    -0.67810
O1129       O  0.40655322  0.63721418  0.51998806    -0.80100
C1130       C  0.40419552  0.58087028  0.58954989     0.83340
O1131       O  0.42313592  0.59416517  0.56747294    -0.67280
Ni1132     Ni  0.41815865  0.62905759  0.93209422     1.27450
Ni1133     Ni  0.40430557  0.56229697  0.95649641     1.26060
H1134       H  0.43810137  0.55510951  0.51650067     0.37880
O1135       O  0.37709471  0.56861737  0.82185525    -0.82070
O1136       O  0.40361022  0.56549010  0.65392065    -0.66760
O1137       O  0.41414463  0.56142701  0.76065193    -1.13360
C1138       C  0.42819204  0.65516390  0.75327672     1.04820
O1139       O  0.41048142  0.61120854  0.63704906    -0.79970
O1140       O  0.45848707  0.60584690  0.69529917    -0.67550
Ni1141     Ni  0.38541910  0.54000789  0.79000065     1.34870
C1142       C  0.47375314  0.60277524  0.72763373     0.83550
O1143       O  0.41762540  0.52332855  0.70916259    -0.80510
O1144       O  0.39512926  0.51033947  0.76277822    -0.90780
C1145       C  0.40613849  0.58619107  0.62920212     0.83130
O1146       O  0.34719989  0.55159383  0.75589801    -0.68980
O1147       O  0.43616656  0.65215556  0.72123845    -0.88270
C1148       C  0.34101625  0.54137067  0.72545948     0.83960
C1149       C  0.40725519  0.50469283  0.73354054     1.05520
H1150       H  0.37262361  0.60473025  0.70640815     0.37330
O1151       O  0.39650565  0.60163447  0.71119003    -1.10930
O1152       O  0.45878347  0.60302287  0.75697300    -0.67580
Ni1153     Ni  0.41081158  0.59952162  0.76424473     1.26350
O1154       O  0.35994833  0.54904779  0.70045637    -0.67810
O1155       O  0.40823215  0.63825282  0.76880690    -0.80100
C1156       C  0.40040350  0.58314596  0.83736008     0.83340
O1157       O  0.42214590  0.59491861  0.81740641    -0.67280
Ni1158     Ni  0.42107787  0.62901404  0.68184156     1.27450
Ni1159     Ni  0.40699555  0.56258434  0.70739020     1.26060
H1160       H  0.43675768  0.55535361  0.76886524     0.37880
O1161       O  0.06529815  0.61684936  0.89499221    -0.82070
O1162       O  0.06752481  0.60711610  0.57443212    -0.66760
O1163       O  0.08427432  0.61553779  0.97094887    -1.13360
C1164       C  0.08875614  0.51556232  0.00169996     1.04820
O1165       O  0.11284971  0.58152046  0.58961538    -0.79970
O1166       O  0.14410040  0.55280504  0.53693418    -0.67550
Ni1167     Ni  0.05274787  0.63510638  0.93485538     1.34870
C1168       C  0.15069794  0.56009086  0.50366770     0.83550
O1169       O  0.06853965  0.65235886  0.52097820    -0.80510
O1170       O  0.03633517  0.65843239  0.96737943    -0.90780
C1171       C  0.08844409  0.59428444  0.59954572     0.83130
O1172       O  0.02104857  0.60668768  0.94804969    -0.68980
O1173       O  0.08969633  0.52025217  0.53506938    -0.88270
C1174       C  0.00848834  0.60484560  0.97878230     0.83960
C1175       C  0.04609807  0.66568421  0.49880385     1.05520
H1176       H  0.05426600  0.56593099  0.52047594     0.37330
O1177       O  0.07664339  0.57386445  0.51988679    -1.10930
O1178       O  0.13304704  0.57704248  0.98124226    -0.67580
Ni1179     Ni  0.08587495  0.57533893  0.96959410     1.26350
O1180       O  0.02567118  0.60888142  0.50929283    -0.67810
O1181       O  0.08799613  0.53454399  0.97349612    -0.80100
C1182       C  0.08292814  0.59660943  0.88980317     0.83340
O1183       O  0.09439107  0.57856119  0.91674798    -0.67280
Ni1184     Ni  0.10199502  0.55182057  0.55926118     1.27450
Ni1185     Ni  0.07395630  0.61268759  0.52180907     1.26060
H1186       H  0.10623910  0.62406793  0.96914381     0.37880
O1187       O  0.06677944  0.61605731  0.64531852    -0.82070
O1188       O  0.06827929  0.60796810  0.82408863    -0.66760
O1189       O  0.08646816  0.61512141  0.72109341    -1.13360
C1190       C  0.09059952  0.51520879  0.75299293     1.04820
O1191       O  0.11323234  0.58233759  0.84092700    -0.79970
O1192       O  0.14696323  0.55584005  0.78959449    -0.67550
Ni1193     Ni  0.05438377  0.63437571  0.68496871     1.34870
C1194       C  0.15486018  0.56196603  0.75657182     0.83550
O1195       O  0.07028955  0.65254792  0.77019769    -0.80510
O1196       O  0.03769963  0.65795742  0.71692322    -0.90780
C1197       C  0.08848795  0.59519174  0.84983035     0.83130
O1198       O  0.02279000  0.60587254  0.69856946    -0.68980
O1199       O  0.09416426  0.52026479  0.78634923    -0.88270
C1200       C  0.01022844  0.60422292  0.72930758     0.83960
C1201       C  0.04775882  0.66568046  0.74796108     1.05520
H1202       H  0.05655118  0.56583652  0.77150863     0.37330
O1203       O  0.07885847  0.57387530  0.77068164    -1.10930
O1204       O  0.13576530  0.57514513  0.73073671    -0.67580
Ni1205     Ni  0.08785602  0.57479259  0.72023451     1.26350
O1206       O  0.02745978  0.60872301  0.75953325    -0.67810
O1207       O  0.08879526  0.53397711  0.72451439    -0.80100
C1208       C  0.08389670  0.59563084  0.63990432     0.83340
O1209       O  0.09546558  0.57754560  0.66686537    -0.67280
Ni1210     Ni  0.10428707  0.55242556  0.81050022     1.27450
Ni1211     Ni  0.07573894  0.61281987  0.77183782     1.26060
H1212       H  0.10846174  0.62354664  0.71915478     0.37880
O1213       O  0.08887739  0.88379564  0.59989544    -0.82070
O1214       O  0.07651131  0.89354800  0.91901948    -0.66760
O1215       O  0.10522005  0.88917060  0.52545120    -1.13360
C1216       C  0.09236828  0.98635975  0.49704257     1.04820
O1217       O  0.11717512  0.92443794  0.90890354    -0.79970
O1218       O  0.14776891  0.93411619  0.97216887    -0.67550
Ni1219     Ni  0.08222050  0.86365119  0.55901798     1.34870
C1220       C  0.15885818  0.94656661  0.99902298     0.83550
O1221       O  0.08789954  0.84859773  0.97030293    -0.80510
O1222       O  0.07243692  0.83765473  0.52620957    -0.90780
C1223       C  0.09431784  0.90854270  0.89675295     0.83130
O1224       O  0.04043350  0.88140266  0.54211091    -0.68980
O1225       O  0.10628923  0.98177917  0.96880826    -0.88270
C1226       C  0.02616583  0.88334410  0.50907329     0.83960
C1227       C  0.07439220  0.83176011  0.99426376     1.05520
H1228       H  0.06231219  0.93371287  0.96787650     0.37330
O1229       O  0.08542030  0.92825580  0.97419573    -1.10930
O1230       O  0.14333964  0.94278132  0.52758364    -0.67580
Ni1231     Ni  0.09635445  0.92859309  0.52747367     1.26350
O1232       O  0.04198168  0.88511237  0.98038295    -0.67810
O1233       O  0.08492417  0.96735100  0.52277771    -0.80100
C1234       C  0.09865629  0.90745401  0.60764879     0.83340
O1235       O  0.10471624  0.92737679  0.58236908    -0.67280
Ni1236     Ni  0.11154581  0.95106096  0.94156629     1.27450
Ni1237     Ni  0.08886839  0.88913046  0.97235382     1.26060
H1238       H  0.12907079  0.88588202  0.52926396     0.37880
O1239       O  0.08842456  0.88028584  0.85024504    -0.82070
O1240       O  0.08255636  0.89480937  0.66906714    -0.66760
O1241       O  0.10531857  0.88802765  0.77643187    -1.13360
C1242       C  0.09316459  0.98579508  0.74821086     1.04820
O1243       O  0.12622019  0.92359654  0.66346443    -0.79970
O1244       O  0.15601379  0.93828792  0.73124365    -0.67550
Ni1245     Ni  0.08255555  0.86146764  0.80841676     1.34870
C1246       C  0.16165253  0.94677424  0.76301574     0.83550
O1247       O  0.08996879  0.84835272  0.71904281    -0.80510
O1248       O  0.07344336  0.83688289  0.77418460    -0.90780
C1249       C  0.10209996  0.90968999  0.64847472     0.83130
O1250       O  0.04165391  0.87996485  0.79102267    -0.68980
O1251       O  0.10860497  0.98134068  0.72104377    -0.88270
C1252       C  0.02811807  0.88315311  0.75769123     0.83960
C1253       C  0.07598042  0.83131630  0.74231648     1.05520
H1254       H  0.06728385  0.93357233  0.71616462     0.37330
O1255       O  0.08985708  0.92769660  0.72502090    -1.11130
O1256       O  0.14135492  0.93960690  0.78671783    -0.67580
Ni1257     Ni  0.09450481  0.92722264  0.77797039     1.26350
O1258       O  0.04445384  0.88560738  0.72912979    -0.67810
O1259       O  0.08378072  0.96654484  0.77276899    -0.80100
C1260       C  0.09213193  0.90497038  0.85711901     0.83340
O1261       O  0.09555123  0.92547156  0.83199993    -0.67280
Ni1262     Ni  0.11848397  0.95079985  0.69600739     1.27450
Ni1263     Ni  0.09204702  0.88876974  0.72267784     1.26060
H1264       H  0.12925624  0.88543772  0.78142511     0.37880
O1265       O  0.44351249  0.88197936  0.91594552    -0.82070
O1266       O  0.43835556  0.88887512  0.58752869    -0.66760
O1267       O  0.41104825  0.88084159  0.98322961    -1.13360
C1268       C  0.39931332  0.97446820  0.97622888     1.04820
O1269       O  0.39820716  0.92005475  0.59056693    -0.79970
O1270       O  0.36042776  0.90998452  0.52784164    -0.67550
Ni1271     Ni  0.43240903  0.85648360  0.95675480     1.34870
C1272       C  0.34348942  0.91784411  0.99787600     0.83550
O1273       O  0.44335904  0.84298312  0.54671190    -0.80510
O1274       O  0.41968807  0.83038562  0.99535724    -0.90780
C1275       C  0.42079480  0.90342222  0.60599478     0.83130
O1276       O  0.47699286  0.86538117  0.97932693    -0.68980
O1277       O  0.37829161  0.96262566  0.49643412    -0.88270
C1278       C  0.48979298  0.88039583  0.00398401     0.83960
C1279       C  0.44125818  0.82570883  0.52228294     1.05520
H1280       H  0.44160946  0.93259738  0.52395749     0.37330
O1281       O  0.42083823  0.92210508  0.52026374    -1.10930
O1282       O  0.35920513  0.92047283  0.96837234    -0.67580
Ni1283     Ni  0.41018928  0.91944042  0.96725847     1.26350
O1284       O  0.47297071  0.89092556  0.52613620    -0.67810
O1285       O  0.41376420  0.96005310  0.95573112    -0.80100
C1286       C  0.42307275  0.89903190  0.89775473     0.83340
O1287       O  0.40414170  0.91380908  0.91438141    -0.67280
Ni1288     Ni  0.38859020  0.93981298  0.54256367     1.27450
Ni1289     Ni  0.42784650  0.88284367  0.53529659     1.26060
H1290       H  0.38794809  0.87443972  0.98282672     0.37880
O1291       O  0.44441275  0.88259186  0.66426025    -0.82070
O1292       O  0.43991494  0.88771584  0.83832043    -0.66760
O1293       O  0.41368177  0.88129530  0.73275792    -1.13360
C1294       C  0.40413717  0.97470512  0.72972328     1.04820
O1295       O  0.39732020  0.91659550  0.84047773    -0.79970
O1296       O  0.36383333  0.90847944  0.77573196    -0.67550
Ni1297     Ni  0.43421619  0.85701099  0.70548063     1.34870
C1298       C  0.34731757  0.91766031  0.74617158     0.83550
O1299       O  0.44543093  0.84247836  0.79614344    -0.80510
O1300       O  0.42222695  0.83065641  0.74420516    -0.90780
C1301       C  0.42067858  0.90118417  0.85647805     0.83130
O1302       O  0.47884993  0.86613636  0.72730337    -0.68980
O1303       O  0.38287552  0.96225796  0.74894585    -0.88270
C1304       C  0.49180317  0.88052068  0.75258013     0.83960
C1305       C  0.44374959  0.82575339  0.77116696     1.05520
H1306       H  0.44458748  0.93191666  0.77648297     0.37330
O1307       O  0.42389724  0.92153245  0.77163285    -1.10930
O1308       O  0.36343011  0.92173103  0.71728012    -0.67580
Ni1309     Ni  0.41413551  0.92020569  0.71810980     1.26350
O1310       O  0.47535970  0.89008827  0.77599131    -0.67810
O1311       O  0.41870445  0.96093830  0.70855406    -0.80100
C1312       C  0.42467754  0.90078310  0.64725970     0.83340
O1313       O  0.40769542  0.91618347  0.66496099    -0.67280
Ni1314     Ni  0.39065705  0.93796890  0.79370992     1.27450
Ni1315     Ni  0.43020211  0.88228640  0.78538927     1.26060
H1316       H  0.39044282  0.87525556  0.73195542     0.37880
O1317       O  0.44651150  0.77234414  0.94217595    -0.82070
O1318       O  0.03288199  0.76494013  0.58359382    -0.66760
O1319       O  0.00409611  0.75582689  0.98365569    -1.13360
C1320       C  0.44188118  0.67805153  0.02241489     1.04820
O1321       O  0.03213684  0.72088725  0.59871956    -0.79970
O1322       O  0.03202300  0.69079009  0.54491446    -0.67550
Ni1323     Ni  0.99175945  0.78730618  0.94936720     1.34870
C1324       C  0.02636092  0.68715165  0.51142593     0.83550
O1325       O  0.04847089  0.79109804  0.51801777    -0.80510
O1326       O  0.03629915  0.80439681  0.95696416    -0.90780
C1327       C  0.02302637  0.74458929  0.60474532     0.83130
O1328       O  0.47508253  0.81065220  0.98120230    -0.68980
O1329       O  0.46588027  0.67347723  0.54855265    -0.88270
C1330       C  0.46880107  0.80745678  0.01458920     0.83960
C1331       C  0.05370006  0.80648131  0.48796641     1.05520
H1332       H  0.46565779  0.73926017  0.55269157     0.37330
O1333       O  0.48491030  0.73198386  0.54349498    -1.10930
O1334       O  0.00160843  0.69858418  0.99014854    -0.67580
Ni1335     Ni  0.47004481  0.72839713  0.99479693     1.26350
O1336       O  0.48254109  0.78833062  0.53764285    -0.67810
O1337       O  0.43578927  0.70227096  0.00678716    -0.80100
C1338       C  0.44124092  0.74955039  0.92818053     0.83340
O1339       O  0.45339634  0.72738877  0.94580555    -0.67280
Ni1340     Ni  0.49856072  0.69845483  0.57411379     1.27450
Ni1341     Ni  0.01775067  0.76175217  0.53269156     1.26060
H1342       H  0.02227968  0.74701082  0.97430363     0.37880
O1343       O  0.44747268  0.77274862  0.69291599    -0.82070
O1344       O  0.53580411  0.76517632  0.83230275    -0.66760
O1345       O  0.00574605  0.75563996  0.73283058    -1.13360
C1346       C  0.44460162  0.67818699  0.77234271     1.04820
O1347       O  0.53550238  0.72113951  0.84782959    -0.79970
O1348       O  0.03489210  0.69177152  0.79342921    -0.67550
Ni1349     Ni  0.99320739  0.78707935  0.69857019     1.34870
C1350       C  0.02837945  0.68749161  0.76027687     0.83550
O1351       O  0.05060549  0.79067674  0.76601851    -0.80510
O1352       O  0.03816240  0.80365968  0.70491753    -0.90780
C1353       C  0.52650629  0.74486366  0.85393925     0.83130
O1354       O  0.47813902  0.81110586  0.73049082    -0.68980
O1355       O  0.46913170  0.67352176  0.79787180    -0.88270
C1356       C  0.47139061  0.80759941  0.76367159     0.83960
C1357       C  0.05569683  0.80590654  0.73580996     1.05520
H1358       H  0.46851509  0.73932114  0.80298637     0.37330
O1359       O  0.48749939  0.73205583  0.79328948    -1.10930
O1360       O  0.00307444  0.69852863  0.73945832    -0.67580
Ni1361     Ni  0.47179505  0.72848792  0.74484228     1.26350
O1362       O  0.48484099  0.78826333  0.78664764    -0.67810
O1363       O  0.43777274  0.70252513  0.75775784    -0.80100
C1364       C  0.44100500  0.74986028  0.67942693     0.83340
O1365       O  0.45392483  0.72769663  0.69627227    -0.67280
Ni1366     Ni  0.50180976  0.69858488  0.82344498     1.27450
Ni1367     Ni  0.02006340  0.76166439  0.78159669     1.26060
H1368       H  0.02368960  0.74670327  0.72321272     0.37880
C1369       C  0.97347688  0.72206005  0.87422936    -0.03030
C1370       C  0.49348552  0.74690431  0.86762506     0.06650
C1371       C  0.47774389  0.77345250  0.86506170    -0.03140
C1372       C  0.44330229  0.77391687  0.86950763    -0.03140
C1373       C  0.43035060  0.74991210  0.88828415     0.06790
C1374       C  0.93892935  0.72500258  0.87598147    -0.03340
Br1375     Br  0.90949585  0.69310663  0.88305494    -0.01890
Br1376     Br  0.99268747  0.68581173  0.89139449    -0.01960
Br1377     Br  0.41933208  0.80806221  0.86776876    -0.01920
Br1378     Br  0.50298354  0.80834848  0.86331624    -0.01900
C1379       C  0.96943061  0.72194181  0.62417805    -0.03030
C1380       C  0.98966253  0.74671933  0.61755365     0.06650
C1381       C  0.47411397  0.77338195  0.61510605    -0.03140
C1382       C  0.43982359  0.77393560  0.62028925    -0.03140
C1383       C  0.42754231  0.75013513  0.64012456     0.06790
C1384       C  0.93509750  0.72520174  0.62716895    -0.03340
Br1385     Br  0.90535900  0.69364204  0.63525372    -0.01890
Br1386     Br  0.98836447  0.68556628  0.64135122    -0.01960
Br1387     Br  0.41599289  0.80811663  0.61877559    -0.01920
Br1388     Br  0.49954779  0.80819063  0.61375759    -0.01900
C1389       C  0.25809206  0.54269001  0.88258130    -0.03030
C1390       C  0.26839940  0.01436024  0.89264062     0.06650
C1391       C  0.30302965  0.00758028  0.89134822    -0.03140
C1392       C  0.32296749  0.02753172  0.87287439    -0.03140
C1393       C  0.30429060  0.54645100  0.84725518     0.06790
C1394       C  0.27958686  0.56011630  0.86195777    -0.03340
Br1395     Br  0.26793341  0.59721147  0.84063691    -0.01890
Br1396     Br  0.21409115  0.55621762  0.88748262    -0.01960
Br1397     Br  0.36739646  0.01675184  0.86452955    -0.01920
Br1398     Br  0.32129881  0.97009963  0.90244012    -0.01900
C1399       C  0.23027824  0.51413953  0.62559686    -0.03030
C1400       C  0.25967319  0.50403389  0.61342519     0.06650
C1401       C  0.26254754  0.97509096  0.61090718    -0.03140
C1402       C  0.23310760  0.95829026  0.61059266    -0.03140
C1403       C  0.20744359  0.96785208  0.62898080     0.06790
C1404       C  0.20152199  0.49661630  0.62314713    -0.03340
Br1405     Br  0.15728115  0.51001916  0.62575260    -0.01890
Br1406     Br  0.22666589  0.55336683  0.62959039    -0.01960
Br1407     Br  0.23456346  0.91920371  0.60584062    -0.01920
Br1408     Br  0.30634455  0.95874528  0.61778483    -0.01900
O1409       O  0.71315536  0.49450615  0.39359225    -0.82070
O1410       O  0.73580524  0.01827913  0.05764553    -0.66760
O1411       O  0.73395676  0.01029904  0.46050062    -1.13360
C1412       C  0.81541958  0.43712205  0.50217856     1.04820
O1413       O  0.79047939  0.01556203  0.06323836    -0.79970
O1414       O  0.82922038  0.00079096  0.01784147    -0.67550
Ni1415     Ni  0.69217906  0.01141711  0.43009985     1.34870
C1416       C  0.82185590  0.01489125  0.98709505     0.83550
O1417       O  0.70633124  0.04571383  0.00244578    -0.80510
O1418       O  0.66714486  0.02968502  0.46304342    -0.90780
C1419       C  0.76343261  0.01717305  0.07749132     0.83130
O1420       O  0.68378011  0.47626414  0.45580831    -0.68980
O1421       O  0.81543415  0.44545954  0.03419628    -0.88270
C1422       C  0.68129535  0.47088455  0.49030414     0.83960
C1423       C  0.67641426  0.04506874  0.98843950     1.05520
H1424       H  0.74880234  0.46513014  0.02719947     0.37330
O1425       O  0.76172922  0.48098257  0.01748559    -1.10930
O1426       O  0.79896154  0.00687160  0.46327055    -0.67580
Ni1427     Ni  0.76331316  0.47755674  0.46795586     1.26350
O1428       O  0.69453662  0.48686682  0.01420492    -0.67810
O1429       O  0.79582951  0.44738920  0.47449949    -0.80100
C1430       C  0.74457260  0.49130056  0.39777212     0.83340
O1431       O  0.75565123  0.47073574  0.41843589    -0.67280
Ni1432     Ni  0.80183964  0.48026087  0.04940057     1.27450
Ni1433     Ni  0.73337761  0.01350931  0.00949007     1.26060
H1434       H  0.74607918  0.02699171  0.45232117     0.37880
O1435       O  0.69560754  0.46715631  0.19030642    -0.82070
O1436       O  0.75976908  0.01878548  0.31787648    -0.66760
O1437       O  0.73246135  0.00493219  0.22252264    -1.13360
C1438       C  0.82016279  0.43695903  0.25160402     1.04820
O1439       O  0.81070388  0.02145854  0.29851744    -0.79970
O1440       O  0.83458630  0.99475670  0.24884967    -0.67550
Ni1441     Ni  0.68882798  0.00487301  0.19978001     1.34870
C1442       C  0.82230064  0.01370390  0.22571932     0.83550
O1443       O  0.70539112  0.03662098  0.27155746    -0.80510
O1444       O  0.68281767  0.04223339  0.21227087    -0.90780
C1445       C  0.78971428  0.02979621  0.31784053     0.83130
O1446       O  0.66976397  0.49276321  0.24317175    -0.68980
O1447       O  0.82173661  0.44516811  0.28392053    -0.88270
C1448       C  0.68157033  0.47321461  0.26554039     0.83960
C1449       C  0.68419330  0.04798803  0.24581839     1.05520
H1450       H  0.76431181  0.46418303  0.28603633     0.37330
O1451       O  0.77268127  0.48092370  0.27267488    -1.10930
O1452       O  0.79454720  0.00822251  0.20702601    -0.67580
Ni1453     Ni  0.76484742  0.47582811  0.22366592     1.26350
O1454       O  0.70922915  0.47738084  0.28577794    -0.67810
O1455       O  0.80034750  0.44825214  0.22446821    -0.80100
C1456       C  0.71715359  0.46331439  0.16859830     0.83340
O1457       O  0.74848523  0.46710266  0.17808323    -0.67280
Ni1458     Ni  0.81638464  0.48322114  0.29303303     1.27450
Ni1459     Ni  0.74054904  0.00940795  0.27192545     1.26060
H1460       H  0.74132621  0.02188028  0.21019752     0.37880
O1461       O  0.88316900  0.06286461  0.07787322    -0.82070
O1462       O  0.89756074  0.06627017  0.40229960    -0.66760
O1463       O  0.91496803  0.06048493  0.01026680    -1.13360
C1464       C  0.92541700  0.15481338  0.50379018     1.04820
O1465       O  0.90813853  0.11161109  0.38695103    -0.79970
O1466       O  0.95658377  0.10685557  0.44479864    -0.67550
Ni1467     Ni  0.88905692  0.03737043  0.04185789     1.34870
C1468       C  0.97210987  0.10353011  0.47701731     0.83550
O1469       O  0.91425808  0.02301419  0.45606674    -0.80510
O1470       O  0.89503185  0.00935206  0.01109767    -0.90780
C1471       C  0.90171658  0.08713624  0.37797291     0.83130
O1472       O  0.85087764  0.05238742  0.01173875    -0.68980
O1473       O  0.93269663  0.15224403  0.47138752    -0.88270
C1474       C  0.84156084  0.04155024  0.48252753     0.83960
C1475       C  0.90459694  0.00413667  0.48057029     1.05520
H1476       H  0.87059409  0.10428457  0.45800148     0.37330
O1477       O  0.89449891  0.10112056  0.46191036    -1.10930
O1478       O  0.95749650  0.10339628  0.00652466    -0.67580
Ni1479     Ni  0.91014127  0.09858118  0.01474074     1.26350
O1480       O  0.85711918  0.04873899  0.45446196    -0.67810
O1481       O  0.90655332  0.13721363  0.01998868    -0.80100
C1482       C  0.90419642  0.08086964  0.08955039     0.83340
O1483       O  0.92313650  0.09416461  0.06747320    -0.67280
Ni1484     Ni  0.91815940  0.12905798  0.43209429     1.27450
Ni1485     Ni  0.90430628  0.06229742  0.45649668     1.26060
H1486       H  0.93810152  0.05510913  0.01650037     0.37880
O1487       O  0.87709703  0.06861686  0.32185586    -0.82070
O1488       O  0.90361173  0.06548963  0.15392123    -0.66760
O1489       O  0.91414686  0.06142672  0.26065244    -1.13360
C1490       C  0.92819379  0.15516367  0.25327697     1.04820
O1491       O  0.91048289  0.11120804  0.13704945    -0.79970
O1492       O  0.95848886  0.10584668  0.19529943    -0.67550
Ni1493     Ni  0.88542161  0.04000741  0.29000134     1.34870
C1494       C  0.97375503  0.10277519  0.22763396     0.83550
O1495       O  0.91762750  0.02332828  0.20916301    -0.80510
O1496       O  0.89513168  0.01033898  0.26277876    -0.90780
C1497       C  0.90613978  0.08619055  0.12920261     0.83130
O1498       O  0.84720222  0.05159326  0.25589907    -0.68980
O1499       O  0.93616823  0.15215532  0.22123866    -0.88270
C1500       C  0.84101847  0.04137016  0.22546055     0.83960
C1501       C  0.90725738  0.00469248  0.23354087     1.05520
H1502       H  0.87262553  0.10472978  0.20640876     0.37330
O1503       O  0.89650747  0.10163409  0.21119053    -1.10930
O1504       O  0.95878542  0.10302278  0.25697328    -0.67580
Ni1505     Ni  0.91081357  0.09952135  0.26424518     1.26350
O1506       O  0.85995035  0.04904733  0.20045728    -0.67810
O1507       O  0.90823395  0.13825255  0.26880721    -0.80100
C1508       C  0.90040550  0.08314585  0.33736051     0.83340
O1509       O  0.92214790  0.09491851  0.31740686    -0.67280
Ni1510     Ni  0.92107950  0.12901368  0.18184187     1.27450
Ni1511     Ni  0.90699752  0.06258399  0.20739073     1.26060
H1512       H  0.93675999  0.05535343  0.26886562     0.37880
O1513       O  0.56529857  0.11684929  0.39499231    -0.82070
O1514       O  0.56752510  0.10711545  0.07443236    -0.66760
O1515       O  0.58427471  0.11553834  0.47094904    -1.13360
C1516       C  0.58875670  0.01556293  0.50170033     1.04820
O1517       O  0.61285009  0.08151986  0.08961533    -0.79970
O1518       O  0.64410044  0.05280451  0.03693395    -0.67550
Ni1519     Ni  0.55274816  0.13510657  0.43485535     1.34870
C1520       C  0.65069778  0.06009004  0.00366734     0.83550
O1521       O  0.56853980  0.15235820  0.02097854    -0.80510
O1522       O  0.53633545  0.15843279  0.46737921    -0.90780
C1523       C  0.58844463  0.09428395  0.09954584     0.83130
O1524       O  0.52104901  0.10668783  0.44805003    -0.68980
O1525       O  0.58969650  0.02025150  0.03506944    -0.88270
C1526       C  0.50848874  0.10484592  0.47878263     0.83960
C1527       C  0.54609815  0.16568358  0.99880434     1.05520
H1528       H  0.55426602  0.06593034  0.02047630     0.37330
O1529       O  0.57664340  0.07386378  0.01988695    -1.10930
O1530       O  0.63304763  0.07704351  0.48124327    -0.67580
Ni1531     Ni  0.58587569  0.07533952  0.46959447     1.26350
O1532       O  0.52567118  0.10888078  0.00929304    -0.67810
O1533       O  0.58799713  0.03454462  0.47349656    -0.80100
C1534       C  0.58292918  0.09660964  0.38980354     0.83340
O1535       O  0.59439241  0.07856173  0.41674857    -0.67280
Ni1536     Ni  0.60199522  0.05181994  0.05926119     1.27450
Ni1537     Ni  0.57395636  0.11268692  0.02180927     1.26060
H1538       H  0.60623941  0.12406862  0.46914398     0.37880
O1539       O  0.56678137  0.11605761  0.14531879    -0.82070
O1540       O  0.56828087  0.10796814  0.32408889    -0.66760
O1541       O  0.58647007  0.11512134  0.22109377    -1.13360
C1542       C  0.59060127  0.01520876  0.25299308     1.04820
O1543       O  0.61323386  0.08233762  0.34092771    -0.79970
O1544       O  0.64696540  0.05584079  0.28959471    -0.67550
Ni1545     Ni  0.55438590  0.13437598  0.18496908     1.34870
C1546       C  0.65486196  0.06196601  0.25657174     0.83550
O1547       O  0.57029157  0.15254792  0.27019816    -0.80510
O1548       O  0.53770181  0.15795766  0.21692365    -0.90780
C1549       C  0.58848936  0.09519181  0.34983079     0.83130
O1550       O  0.52279182  0.10587299  0.19856952    -0.68980
O1551       O  0.59416709  0.02026482  0.28634937    -0.88270
C1552       C  0.51023033  0.10422312  0.22930771     0.83960
C1553       C  0.54776088  0.16568054  0.24796162     1.05520
H1554       H  0.55655302  0.06583649  0.27150934     0.37330
O1555       O  0.57886029  0.07387527  0.27068207    -1.10930
O1556       O  0.63576674  0.07514445  0.23073634    -0.67580
Ni1557     Ni  0.58785738  0.07479248  0.22023477     1.26350
O1558       O  0.52746168  0.10872306  0.25953343    -0.67810
O1559       O  0.58879609  0.03397703  0.22451452    -0.80100
C1560       C  0.58389782  0.09563070  0.13990449     0.83340
O1561       O  0.59546636  0.07754529  0.16686549    -0.67280
Ni1562     Ni  0.60428925  0.05242564  0.31050052     1.27450
Ni1563     Ni  0.57574082  0.11281986  0.27183819     1.26060
H1564       H  0.60846378  0.12354636  0.21915519     0.37880
O1565       O  0.58887732  0.38379513  0.09989537    -0.82070
O1566       O  0.57651166  0.39354893  0.41901919    -0.66760
O1567       O  0.60521989  0.38917002  0.02545105    -1.13360
C1568       C  0.59236778  0.48635911  0.99704226     1.04820
O1569       O  0.61717567  0.42443875  0.40890354    -0.79970
O1570       O  0.64776922  0.43411705  0.47216894    -0.67550
Ni1571     Ni  0.58222049  0.36365059  0.05901795     1.34870
C1572       C  0.65885838  0.44656753  0.49902304     0.83550
O1573       O  0.58789951  0.34859858  0.47030258    -0.80510
O1574       O  0.57243709  0.33765405  0.02620959    -0.90780
C1575       C  0.59431849  0.40854348  0.39675281     0.83130
O1576       O  0.54043339  0.38140188  0.04211079    -0.68980
O1577       O  0.60628945  0.48177994  0.46880820    -0.88270
C1578       C  0.52616574  0.38334329  0.00907316     0.83960
C1579       C  0.57439212  0.33176097  0.49426336     1.05520
H1580       H  0.56231246  0.43371375  0.46787626     0.37330
O1581       O  0.58542055  0.42825663  0.47419556    -1.10930
O1582       O  0.64333920  0.44278063  0.02758334    -0.67580
Ni1583     Ni  0.59635408  0.42859246  0.02747343     1.26350
O1584       O  0.54198170  0.38511329  0.48038273    -0.67810
O1585       O  0.58492368  0.46735037  0.02277741    -0.80100
C1586       C  0.59865629  0.40745353  0.10764859     0.83340
O1587       O  0.60471608  0.42737627  0.08236877    -0.67280
Ni1588     Ni  0.61154618  0.45106177  0.44156624     1.27450
Ni1589     Ni  0.58886849  0.38913130  0.47235359     1.26060
H1590       H  0.62907064  0.38588151  0.02926378     0.37880
O1591       O  0.58842554  0.38028637  0.35024517    -0.82070
O1592       O  0.58255714  0.39480896  0.16906728    -0.66760
O1593       O  0.60531992  0.38802780  0.27643192    -1.13360
C1594       C  0.59316578  0.48579519  0.24821052     1.04820
O1595       O  0.62622053  0.42359649  0.16346375    -0.79970
O1596       O  0.65601482  0.43828820  0.23124242    -0.67550
Ni1597     Ni  0.58255724  0.36146779  0.30841720     1.34870
C1598       C  0.66165372  0.44677440  0.26301458     0.83550
O1599       O  0.58997018  0.34835259  0.21904325    -0.80510
O1600       O  0.57344563  0.33688267  0.27418544    -0.90780
C1601       C  0.60210034  0.40968966  0.14847448     0.83130
O1602       O  0.54165520  0.37996433  0.29102296    -0.68980
O1603       O  0.60860584  0.48134075  0.22104321    -0.88270
C1604       C  0.52811938  0.38315274  0.25769153     0.83960
C1605       C  0.57598235  0.33131607  0.24231726     1.05520
H1606       H  0.56728475  0.43357214  0.21616465     0.37330
O1607       O  0.58985807  0.42769653  0.22502075    -1.11130
O1608       O  0.64135632  0.43960707  0.28671693    -0.67580
Ni1609     Ni  0.59450615  0.42722280  0.27797021     1.26350
O1610       O  0.54445510  0.38560714  0.22913008    -0.67810
O1611       O  0.58378205  0.46654499  0.27276874    -0.80100
C1612       C  0.59213305  0.40497094  0.35711894     0.83340
O1613       O  0.59555284  0.42547197  0.33199976    -0.67280
Ni1614     Ni  0.61848453  0.45079986  0.19600673     1.27450
Ni1615     Ni  0.59204818  0.38876963  0.22267795     1.26060
H1616       H  0.62925761  0.38543794  0.28142503     0.37880
O1617       O  0.94351292  0.38197962  0.41594567    -0.82070
O1618       O  0.93835589  0.38887442  0.08752859    -0.66760
O1619       O  0.91104832  0.38084216  0.48322948    -1.13360
C1620       C  0.89931335  0.47446875  0.47622875     1.04820
O1621       O  0.89820799  0.42005444  0.09056707    -0.79970
O1622       O  0.86042783  0.40998409  0.02784226    -0.67550
Ni1623     Ni  0.93240916  0.35648404  0.45675491     1.34870
C1624       C  0.84348930  0.41784475  0.49787521     0.83550
O1625       O  0.94335908  0.34298245  0.04671182    -0.80510
O1626       O  0.91968799  0.33038622  0.49535739    -0.90780
C1627       C  0.92079545  0.40342168  0.10599479     0.83130
O1628       O  0.97699294  0.36538169  0.47932711    -0.68980
O1629       O  0.87829160  0.46262498  0.99643412    -0.88270
C1630       C  0.98979299  0.38039654  0.50398399     0.83960
C1631       C  0.94125840  0.32570819  0.02228282     1.05520
H1632       H  0.94160962  0.43259668  0.02395714     0.37330
O1633       O  0.92083834  0.42210442  0.02026361    -1.10930
O1634       O  0.85920516  0.42047349  0.46837165    -0.67580
Ni1635     Ni  0.91018942  0.41944099  0.46725832     1.26350
O1636       O  0.97297070  0.39092480  0.02613603    -0.67810
O1637       O  0.91376437  0.46005366  0.45573107    -0.80100
C1638       C  0.92307350  0.39903233  0.39775474     0.83340
O1639       O  0.90414237  0.41380963  0.41438123    -0.67280
Ni1640     Ni  0.88859060  0.43981250  0.04256375     1.27450
Ni1641     Ni  0.92784656  0.38284298  0.03529652     1.26060
H1642       H  0.88794815  0.37444032  0.48282650     0.37880
O1643       O  0.94441373  0.38259135  0.16426023    -0.82070
O1644       O  0.93991595  0.38771597  0.33832067    -0.66760
O1645       O  0.91368308  0.38129500  0.23275815    -1.13360
C1646       C  0.90413867  0.47470485  0.22972279     1.04820
O1647       O  0.89732191  0.41659647  0.34047767    -0.79970
O1648       O  0.86383500  0.40847942  0.27573240    -0.67550
Ni1649     Ni  0.93421752  0.35701061  0.20548094     1.34870
C1650       C  0.84731902  0.41766001  0.24617205     0.83550
O1651       O  0.94543226  0.34247830  0.29614394    -0.80510
O1652       O  0.92222859  0.33065607  0.24420568    -0.90780
C1653       C  0.92067976  0.40118465  0.35647810     0.83130
O1654       O  0.97885121  0.36613626  0.22730351    -0.68980
O1655       O  0.88287685  0.46225771  0.24894506    -0.88270
C1656       C  0.99180447  0.38052044  0.25258040     0.83960
C1657       C  0.94375119  0.32575325  0.27116757     1.05520
H1658       H  0.94458897  0.43191656  0.27648269     0.37330
O1659       O  0.92389867  0.42153240  0.27163273    -1.10930
O1660       O  0.86343135  0.42173059  0.21728041    -0.67580
Ni1661     Ni  0.91413677  0.42020537  0.21810974     1.26350
O1662       O  0.97536104  0.39008800  0.27599164    -0.67810
O1663       O  0.91870587  0.46093798  0.20855360    -0.80100
C1664       C  0.92467842  0.40078255  0.14725972     0.83340
O1665       O  0.90769640  0.41618294  0.16496105    -0.67280
Ni1666     Ni  0.89065858  0.43796925  0.29370955     1.27450
Ni1667     Ni  0.93020338  0.38228633  0.28538949     1.26060
H1668       H  0.89044414  0.37525523  0.23195570     0.37880
O1669       O  0.94651151  0.27234462  0.44217592    -0.82070
O1670       O  0.53288242  0.26493954  0.08359399    -0.66760
O1671       O  0.50409622  0.25582761  0.48365544    -1.13360
C1672       C  0.94188173  0.17805205  0.52241488     1.04820
O1673       O  0.53213702  0.22088669  0.09872001    -0.79970
O1674       O  0.53202311  0.19078940  0.04491503    -0.67550
Ni1675     Ni  0.49175934  0.28730688  0.44936700     1.34870
C1676       C  0.52636103  0.18715098  0.01142650     0.83550
O1677       O  0.54847123  0.29109732  0.01801790    -0.80510
O1678       O  0.53629895  0.30439771  0.45696383    -0.90780
C1679       C  0.52302669  0.24458881  0.10474559     0.83130
O1680       O  0.97508232  0.31065281  0.48120216    -0.68980
O1681       O  0.96588032  0.17347669  0.04855321    -0.88270
C1682       C  0.96880103  0.30745740  0.51458912     0.83960
C1683       C  0.55370039  0.30648054  0.98796650     1.05520
H1684       H  0.96565802  0.23925969  0.05269197     0.37330
O1685       O  0.98491054  0.23198329  0.04349536    -1.10930
O1686       O  0.50160872  0.19858481  0.49014821    -0.67580
Ni1687     Ni  0.97004506  0.22839772  0.49479679     1.26350
O1688       O  0.98254139  0.28833003  0.03764299    -0.67810
O1689       O  0.93578967  0.20227147  0.50678717    -0.80100
C1690       C  0.94124115  0.24955092  0.42818035     0.83340
O1691       O  0.95339646  0.22738930  0.44580545    -0.67280
Ni1692     Ni  0.99856083  0.19845428  0.07411429     1.27450
Ni1693     Ni  0.51775097  0.26175152  0.03269180     1.26060
H1694       H  0.52227983  0.24701159  0.47430332     0.37880
O1695       O  0.94747448  0.27274875  0.19291707    -0.82070
O1696       O  0.03580570  0.26517599  0.33230375    -0.66760
O1697       O  0.50574789  0.25563988  0.23283151    -1.13360
C1698       C  0.94460343  0.17818673  0.27234300     1.04820
O1699       O  0.03550366  0.22113917  0.34783074    -0.79970
O1700       O  0.53489387  0.19177133  0.29343000    -0.67550
Ni1701     Ni  0.49320930  0.28707928  0.19857119     1.34870
C1702       C  0.52838138  0.18749156  0.26027757     0.83550
O1703       O  0.55060716  0.29067666  0.26601957    -0.80510
O1704       O  0.53816441  0.30365933  0.20491846    -0.90780
C1705       C  0.02650759  0.24486341  0.35394020     0.83130
O1706       O  0.97814125  0.31110594  0.23049186    -0.68980
O1707       O  0.96913345  0.17352146  0.29787214    -0.88270
C1708       C  0.97139242  0.30759933  0.26367247     0.83960
C1709       C  0.55569870  0.30590632  0.23581094     1.05520
H1710       H  0.96851671  0.23932084  0.30298700     0.37330
O1711       O  0.98750109  0.23205557  0.29329023    -1.10930
O1712       O  0.50307640  0.19852861  0.23945897    -0.67580
Ni1713     Ni  0.97179690  0.22848780  0.24484298     1.26350
O1714       O  0.98484251  0.28826308  0.28664849    -0.67810
O1715       O  0.93777456  0.20252491  0.25775823    -0.80100
C1716       C  0.94100661  0.24986043  0.17942799     0.83340
O1717       O  0.95392675  0.22769677  0.19627296    -0.67280
Ni1718     Ni  0.00181131  0.19858456  0.32344566     1.27450
Ni1719     Ni  0.52006509  0.26166422  0.28159763     1.26060
H1720       H  0.52369149  0.24670323  0.22321368     0.37880
C1721       C  0.47347769  0.22206027  0.37422967    -0.03030
C1722       C  0.99348670  0.24690433  0.36762566     0.06650
C1723       C  0.97774541  0.27345268  0.36506221    -0.03140
C1724       C  0.94330374  0.27391739  0.36950768    -0.03140
C1725       C  0.93035149  0.24991271  0.38828384     0.06790
C1726       C  0.43893015  0.22500312  0.37598130    -0.03340
Br1727     Br  0.40949616  0.19310743  0.38305429    -0.01890
Br1728     Br  0.49268767  0.18581173  0.39139479    -0.01960
Br1729     Br  0.91933404  0.30806299  0.36776889    -0.01920
Br1730     Br  0.00298552  0.30834844  0.36331697    -0.01900
C1731       C  0.46943077  0.22194171  0.12417852    -0.03030
C1732       C  0.48966290  0.24671909  0.11755393     0.06650
C1733       C  0.97411465  0.27338183  0.11510648    -0.03140
C1734       C  0.93982443  0.27393574  0.12029026    -0.03140
C1735       C  0.92754319  0.25013537  0.14012582     0.06790
C1736       C  0.43509780  0.22520193  0.12716997    -0.03340
Br1737     Br  0.40535905  0.19364248  0.13525527    -0.01890
Br1738     Br  0.48836432  0.18556604  0.14135163    -0.01960
Br1739     Br  0.91599420  0.30811696  0.11877704    -0.01920
Br1740     Br  0.99954881  0.30819036  0.11375761    -0.01900
C1741       C  0.75809281  0.04269082  0.38258117    -0.03030
C1742       C  0.76839966  0.51436091  0.39264067     0.06650
C1743       C  0.80302984  0.50758070  0.39134849    -0.03140
C1744       C  0.82296794  0.52753200  0.37287480    -0.03140
C1745       C  0.80429157  0.04645112  0.34725534     0.06790
C1746       C  0.77958763  0.06011673  0.36195719    -0.03340
Br1747     Br  0.76793393  0.09721150  0.34063479    -0.01890
Br1748     Br  0.71409211  0.05621880  0.38748269    -0.01960
Br1749     Br  0.86739704  0.51675195  0.36453070    -0.01920
Br1750     Br  0.82129850  0.47009988  0.40244021    -0.01900
C1751       C  0.73028311  0.01414136  0.12559776    -0.03030
C1752       C  0.75967785  0.00403615  0.11342536     0.06650
C1753       C  0.76255341  0.47509366  0.11090841    -0.03140
C1754       C  0.73311333  0.45829301  0.11059197    -0.03140
C1755       C  0.70744836  0.46785462  0.12897911     0.06790
C1756       C  0.70152681  0.99661814  0.12314720    -0.03340
Br1757     Br  0.65728577  0.01002092  0.12575189    -0.01890
Br1758     Br  0.72667056  0.05336859  0.12959130    -0.01960
Br1759     Br  0.73456989  0.41920651  0.10583977    -0.01920
Br1760     Br  0.80635074  0.45874857  0.11778625    -0.01900
O1761       O  0.71315511  0.49450494  0.89359209    -0.82070
O1762       O  0.73580443  0.01828042  0.55764562    -0.66760
O1763       O  0.73395624  0.01029795  0.96050029    -1.13360
C1764       C  0.81541919  0.43712098  0.00217895     1.04820
O1765       O  0.79047842  0.01556156  0.56324192    -0.79970
O1766       O  0.82921923  0.00079404  0.51784349    -0.67550
Ni1767     Ni  0.69217871  0.01141605  0.93009950     1.34870
C1768       C  0.82185578  0.01489266  0.48709560     0.83550
O1769       O  0.70633162  0.04571509  0.50244562    -0.80510
O1770       O  0.66714461  0.02968419  0.96304293    -0.90780
C1771       C  0.76343073  0.01717240  0.57749311     0.83130
O1772       O  0.68377971  0.47626320  0.95580813    -0.68980
O1773       O  0.81543589  0.44546139  0.53419556    -0.88270
C1774       C  0.68129507  0.47088357  0.99030400     0.83960
C1775       C  0.67641454  0.04506969  0.48843981     1.05520
H1776       H  0.74880233  0.46513119  0.52720005     0.37330
O1777       O  0.76172935  0.48098355  0.51748620    -1.10930
O1778       O  0.79896078  0.00687135  0.96327021    -0.67580
Ni1779     Ni  0.76331312  0.47755591  0.96795539     1.26350
O1780       O  0.69453673  0.48686794  0.51420498    -0.67810
O1781       O  0.79583020  0.44738885  0.97449931    -0.80100
C1782       C  0.74457241  0.49129964  0.89777177     0.83340
O1783       O  0.75565134  0.47073488  0.91843542    -0.67280
Ni1784     Ni  0.80183970  0.48026157  0.54940160     1.27450
Ni1785     Ni  0.73337781  0.01351047  0.50949033     1.26060
H1786       H  0.74607844  0.02699075  0.95232091     0.37880
O1787       O  0.69560529  0.46715577  0.69030816    -0.82070
O1788       O  0.75976790  0.01878580  0.81787625    -0.66760
O1789       O  0.73245937  0.00493222  0.72252266    -1.13360
C1790       C  0.82016126  0.43695941  0.75160339     1.04820
O1791       O  0.81070244  0.02145901  0.79851663    -0.79970
O1792       O  0.83458440  0.99475705  0.74884846    -0.67550
Ni1793     Ni  0.68882575  0.00487266  0.69978086     1.34870
C1794       C  0.82229857  0.01370432  0.72571836     0.83550
O1795       O  0.70538957  0.03662109  0.77155755    -0.80510
O1796       O  0.68281568  0.04223323  0.71227108    -0.90780
C1797       C  0.78971312  0.02979647  0.81784022     0.83130
O1798       O  0.66976236  0.49276336  0.74317315    -0.68980
O1799       O  0.82173527  0.44516859  0.78391985    -0.88270
C1800       C  0.68156888  0.47321466  0.76554144     0.83960
C1801       C  0.68419160  0.04798806  0.74581854     1.05520
H1802       H  0.76431060  0.46418332  0.78603613     0.37330
O1803       O  0.77267986  0.48092400  0.77267452    -1.10930
O1804       O  0.79454504  0.00822285  0.70702521    -0.67580
Ni1805     Ni  0.76484555  0.47582828  0.72366559     1.26350
O1806       O  0.70922799  0.47738085  0.78577849    -0.67810
O1807       O  0.80034577  0.44825240  0.72446764    -0.80100
C1808       C  0.71715063  0.46331351  0.66859948     0.83340
O1809       O  0.74848245  0.46710243  0.67808313    -0.67280
Ni1810     Ni  0.81638333  0.48322163  0.79303223     1.27450
Ni1811     Ni  0.74054754  0.00940813  0.77192539     1.26060
H1812       H  0.74132396  0.02188031  0.71019727     0.37880
O1813       O  0.88316816  0.06286546  0.57787268    -0.82070
O1814       O  0.89755942  0.06626990  0.90229952    -0.66760
O1815       O  0.91496808  0.06048542  0.51026692    -1.13360
C1816       C  0.92541671  0.15481289  0.00379046     1.04820
O1817       O  0.90813768  0.11161078  0.88695122    -0.79970
O1818       O  0.95658341  0.10685529  0.94479857    -0.67550
Ni1819     Ni  0.88905613  0.03737128  0.54185744     1.34870
C1820       C  0.97210961  0.10352976  0.97701721     0.83550
O1821       O  0.91425737  0.02301372  0.95606641    -0.80510
O1822       O  0.89503109  0.00935282  0.51109728    -0.90780
C1823       C  0.90171522  0.08713605  0.87797290     0.83130
O1824       O  0.85087791  0.05238929  0.51173748    -0.68980
O1825       O  0.93269622  0.15224361  0.97138773    -0.88270
C1826       C  0.84156073  0.04154900  0.98252823     0.83960
C1827       C  0.90459698  0.00413607  0.98057028     1.05520
H1828       H  0.87059368  0.10428417  0.95800193     0.37330
O1829       O  0.89449850  0.10112012  0.96191062    -1.10930
O1830       O  0.95749668  0.10339668  0.50652473    -0.67580
Ni1831     Ni  0.91014136  0.09858171  0.51474060     1.26350
O1832       O  0.85711869  0.04873865  0.95446259    -0.67810
O1833       O  0.90655348  0.13721420  0.51998835    -0.80100
C1834       C  0.90419567  0.08087029  0.58955014     0.83340
O1835       O  0.92313611  0.09416516  0.56747320    -0.67280
Ni1836     Ni  0.91815887  0.12905759  0.93209449     1.27450
Ni1837     Ni  0.90430570  0.06229700  0.95649665     1.26060
H1838       H  0.93810149  0.05510950  0.51650092     0.37880
O1839       O  0.87709487  0.06861737  0.82185549    -0.82070
O1840       O  0.90361036  0.06549011  0.65392090    -0.66760
O1841       O  0.91414479  0.06142699  0.76065217    -1.13360
C1842       C  0.92819227  0.15516387  0.75327701     1.04820
O1843       O  0.91048159  0.11120855  0.63704932    -0.79970
O1844       O  0.95848724  0.10584685  0.69529942    -0.67550
Ni1845     Ni  0.88541925  0.04000787  0.79000088     1.34870
C1846       C  0.97375331  0.10277518  0.72763398     0.83550
O1847       O  0.91762554  0.02332856  0.70916282    -0.80510
O1848       O  0.89512940  0.01033945  0.76277843    -0.90780
C1849       C  0.90613865  0.08619108  0.62920237     0.83130
O1850       O  0.84720002  0.05159380  0.75589826    -0.68980
O1851       O  0.93616679  0.15215552  0.72123874    -0.88270
C1852       C  0.84101639  0.04137066  0.72545971     0.83960
C1853       C  0.90725533  0.00469283  0.73354074     1.05520
H1854       H  0.87262378  0.10473026  0.70640841     0.37330
O1855       O  0.89650582  0.10163447  0.71119029    -1.10930
O1856       O  0.95878366  0.10302282  0.75697325    -0.67580
Ni1857     Ni  0.91081176  0.09952161  0.76424499     1.26350
O1858       O  0.85994847  0.04904779  0.70045661    -0.67810
O1859       O  0.90823236  0.13825279  0.76880718    -0.80100
C1860       C  0.90040367  0.08314596  0.83736033     0.83340
O1861       O  0.92214608  0.09491859  0.81740667    -0.67280
Ni1862     Ni  0.92107807  0.12901403  0.68184184     1.27450
Ni1863     Ni  0.90699570  0.06258434  0.70739044     1.26060
H1864       H  0.93675783  0.05535358  0.76886547     0.37880
O1865       O  0.56529825  0.11684924  0.89499239    -0.82070
O1866       O  0.56752500  0.10711609  0.57443230    -0.66760
O1867       O  0.58427446  0.11553774  0.97094903    -1.13360
C1868       C  0.58875630  0.01556227  0.00170016     1.04820
O1869       O  0.61284988  0.08152042  0.58961557    -0.79970
O1870       O  0.64410054  0.05280499  0.53693436    -0.67550
Ni1871     Ni  0.55274798  0.13510628  0.93485555     1.34870
C1872       C  0.65069808  0.06009084  0.50366790     0.83550
O1873       O  0.56853984  0.15235883  0.52097832    -0.80510
O1874       O  0.53633530  0.15843230  0.96737957    -0.90780
C1875       C  0.58844427  0.09428441  0.59954591     0.83130
O1876       O  0.52104873  0.10668756  0.94804993    -0.68980
O1877       O  0.58969648  0.02025212  0.53506958    -0.88270
C1878       C  0.50848850  0.10484551  0.97878254     0.83960
C1879       C  0.54609826  0.16568417  0.49880395     1.05520
H1880       H  0.55426616  0.06593095  0.52047613     0.37330
O1881       O  0.57664355  0.07386441  0.51988699    -1.10930
O1882       O  0.63304719  0.07704248  0.98124249    -0.67580
Ni1883     Ni  0.58587512  0.07533888  0.96959429     1.26350
O1884       O  0.52567136  0.10888138  0.50929305    -0.67810
O1885       O  0.58799632  0.03454394  0.97349633    -0.80100
C1886       C  0.58292829  0.09660935  0.88980337     0.83340
O1887       O  0.59439127  0.07856113  0.91674819    -0.67280
Ni1888     Ni  0.60199517  0.05182052  0.55926138     1.27450
Ni1889     Ni  0.57395648  0.11268755  0.52180925     1.26060
H1890       H  0.60623923  0.12406789  0.96914395     0.37880
O1891       O  0.56677960  0.11605726  0.64531872    -0.82070
O1892       O  0.56827947  0.10796804  0.82408883    -0.66760
O1893       O  0.58646833  0.11512136  0.72109361    -1.13360
C1894       C  0.59059968  0.01520873  0.75299312     1.04820
O1895       O  0.61323250  0.08233752  0.84092720    -0.79970
O1896       O  0.64696339  0.05583998  0.78959469    -0.67550
Ni1897     Ni  0.55438394  0.13437565  0.68496892     1.34870
C1898       C  0.65486034  0.06196596  0.75657203     0.83550
O1899       O  0.57028973  0.15254786  0.77019790    -0.80510
O1900       O  0.53769981  0.15795736  0.71692344    -0.90780
C1901       C  0.58848812  0.09519166  0.84983055     0.83130
O1902       O  0.52279017  0.10587248  0.69856968    -0.68980
O1903       O  0.59416441  0.02026473  0.78634942    -0.88270
C1904       C  0.51022862  0.10422286  0.72930781     0.83960
C1905       C  0.54775901  0.16568041  0.74796129     1.05520
H1906       H  0.55655135  0.06583647  0.77150882     0.37330
O1907       O  0.57885864  0.07387524  0.77068184    -1.10930
O1908       O  0.63576547  0.07514507  0.73073692    -0.67580
Ni1909     Ni  0.58785619  0.07479254  0.72023470     1.26350
O1910       O  0.52745997  0.10872296  0.75953347    -0.67810
O1911       O  0.58879543  0.03397705  0.72451458    -0.80100
C1912       C  0.58389688  0.09563080  0.63990452     0.83340
O1913       O  0.59546576  0.07754555  0.66686556    -0.67280
Ni1914     Ni  0.60428722  0.05242549  0.81050041     1.27450
Ni1915     Ni  0.57573912  0.11281982  0.77183803     1.26060
H1916       H  0.60846191  0.12354659  0.71915498     0.37880
O1917       O  0.58887737  0.38379568  0.59989527    -0.82070
O1918       O  0.57651126  0.39354808  0.91901930    -0.66760
O1919       O  0.60522000  0.38917069  0.52545102    -1.13360
C1920       C  0.59236813  0.48635980  0.49704239     1.04820
O1921       O  0.61717506  0.42443803  0.90890337    -0.79970
O1922       O  0.64776878  0.43411621  0.97216877    -0.67550
Ni1923     Ni  0.58222050  0.36365124  0.55901781     1.34870
C1924       C  0.65885806  0.44656664  0.99902287     0.83550
O1925       O  0.58789957  0.34859782  0.97030275    -0.80510
O1926       O  0.57243697  0.33765480  0.52620938    -0.90780
C1927       C  0.59431778  0.40854279  0.89675278     0.83130
O1928       O  0.54043349  0.38140268  0.54211075    -0.68980
O1929       O  0.60628916  0.48177923  0.96880812    -0.88270
C1930       C  0.52616580  0.38334412  0.50907314     0.83960
C1931       C  0.57439227  0.33176019  0.99426358     1.05520
H1932       H  0.56231209  0.43371293  0.96787628     0.37330
O1933       O  0.58542020  0.42825588  0.97419554    -1.10930
O1934       O  0.64333948  0.44278140  0.52758350    -0.67580
Ni1935     Ni  0.59635431  0.42859316  0.52747349     1.26350
O1936       O  0.54198165  0.38511240  0.98038279    -0.67810
O1937       O  0.58492398  0.46735106  0.52277751    -0.80100
C1938       C  0.59865617  0.40745407  0.60764861     0.83340
O1939       O  0.60471606  0.42737687  0.58236889    -0.67280
Ni1940     Ni  0.61154575  0.45106103  0.94156614     1.27450
Ni1941     Ni  0.58886834  0.38913054  0.97235364     1.26060
H1942       H  0.62907074  0.38588214  0.52926378     0.37880
O1943       O  0.58842451  0.38028592  0.85024487    -0.82070
O1944       O  0.58255624  0.39480943  0.66906696    -0.66760
O1945       O  0.60531850  0.38802773  0.77643169    -1.13360
C1946       C  0.59316444  0.48579515  0.74821067     1.04820
O1947       O  0.62622004  0.42359663  0.66346423    -0.79970
O1948       O  0.65601365  0.43828802  0.73124340    -0.67550
Ni1949     Ni  0.58255552  0.36146771  0.80841660     1.34870
C1950       C  0.66165240  0.44677433  0.76301550     0.83550
O1951       O  0.58996874  0.34835279  0.71904264    -0.80510
O1952       O  0.57344337  0.33688296  0.77418445    -0.90780
C1953       C  0.60209982  0.40969007  0.64847453     0.83130
O1954       O  0.54165385  0.37996487  0.79102253    -0.68980
O1955       O  0.60860480  0.48134075  0.72104357    -0.88270
C1956       C  0.52811800  0.38315312  0.75769109     0.83960
C1957       C  0.57598041  0.33131636  0.74231633     1.05520
H1958       H  0.56728371  0.43357238  0.71616445     0.37330
O1959       O  0.58985695  0.42769667  0.72502072    -1.11130
O1960       O  0.64135481  0.43960700  0.78671760    -0.67580
Ni1961     Ni  0.59450470  0.42722272  0.77797021     1.26350
O1962       O  0.54445375  0.38560742  0.72912964    -0.67810
O1963       O  0.58378058  0.46654491  0.77276881    -0.80100
C1964       C  0.59213187  0.40497046  0.85711883     0.83340
O1965       O  0.59555115  0.42547165  0.83199975    -0.67280
Ni1966     Ni  0.61848381  0.45079994  0.69600718     1.27450
Ni1967     Ni  0.59204693  0.38876981  0.72267766     1.26060
H1968       H  0.62925618  0.38543782  0.78142491     0.37880
O1969       O  0.94351241  0.38197926  0.91594541    -0.82070
O1970       O  0.93835554  0.38887511  0.58752860    -0.66760
O1971       O  0.91104821  0.38084152  0.98322954    -1.13360
C1972       C  0.89931325  0.47446815  0.97622871     1.04820
O1973       O  0.89820710  0.42005472  0.59056681    -0.79970
O1974       O  0.86042768  0.40998450  0.52784153    -0.67550
Ni1975     Ni  0.93240901  0.35648352  0.95675474     1.34870
C1976       C  0.84348935  0.41784407  0.99787588     0.83550
O1977       O  0.94335909  0.34298310  0.54671186    -0.80510
O1978       O  0.91968815  0.33038555  0.99535722    -0.90780
C1979       C  0.92079474  0.40342220  0.60599468     0.83130
O1980       O  0.97699284  0.36538116  0.97932681    -0.68980
O1981       O  0.87829155  0.46262561  0.49643398    -0.88270
C1982       C  0.98979295  0.38039583  0.00398388     0.83960
C1983       C  0.94125827  0.32570880  0.52228291     1.05520
H1984       H  0.94160940  0.43259734  0.52395735     0.37330
O1985       O  0.92083817  0.42210503  0.52026362    -1.10930
O1986       O  0.85920507  0.42047277  0.96837222    -0.67580
Ni1987     Ni  0.91018922  0.41944035  0.96725836     1.26350
O1988       O  0.97297068  0.39092554  0.52613609    -0.67810
O1989       O  0.91376413  0.46005303  0.95573098    -0.80100
C1990       C  0.92307267  0.39903181  0.89775462     0.83340
O1991       O  0.90414162  0.41380899  0.91438131    -0.67280
Ni1992     Ni  0.88859014  0.43981294  0.54256354     1.27450
Ni1993     Ni  0.92784649  0.38284363  0.53529651     1.26060
H1994       H  0.88794806  0.37443963  0.98282666     0.37880
O1995       O  0.94441267  0.38259182  0.66426015    -0.82070
O1996       O  0.93991487  0.38771579  0.83832032    -0.66760
O1997       O  0.91368167  0.38129525  0.73275782    -1.13360
C1998       C  0.90413705  0.47470510  0.72972316     1.04820
O1999       O  0.89732010  0.41659542  0.84047763    -0.79970
O2000       O  0.86383318  0.40847943  0.77573186    -0.67550
Ni2001     Ni  0.93421612  0.35701095  0.70548053     1.34870
C2002       C  0.84731744  0.41766032  0.74617147     0.83550
O2003       O  0.94543088  0.34247831  0.79614334    -0.80510
O2004       O  0.92222691  0.33065636  0.74420506    -0.90780
C2005       C  0.92067850  0.40118410  0.85647794     0.83130
O2006       O  0.97884986  0.36613633  0.72730326    -0.68980
O2007       O  0.88287543  0.46225795  0.74894579    -0.88270
C2008       C  0.99180309  0.38052066  0.75258000     0.83960
C2009       C  0.94374956  0.32575334  0.77116686     1.05520
H2010       H  0.94458737  0.43191661  0.77648285     0.37330
O2011       O  0.92389714  0.42153240  0.77163274    -1.10930
O2012       O  0.86343000  0.42173102  0.71728002    -0.67580
Ni2013     Ni  0.91413540  0.42020565  0.71810970     1.26350
O2014       O  0.97535961  0.39008824  0.77599118    -0.67810
O2015       O  0.91870434  0.46093825  0.70855396    -0.80100
C2016       C  0.92467745  0.40078306  0.64725960     0.83340
O2017       O  0.90769532  0.41618343  0.66496088    -0.67280
Ni2018     Ni  0.89065696  0.43796886  0.79370984     1.27450
Ni2019     Ni  0.93020203  0.38228635  0.78538917     1.26060
H2020       H  0.89044272  0.37525550  0.73195533     0.37880
O2021       O  0.94651162  0.27234407  0.94217606    -0.82070
O2022       O  0.53288231  0.26494026  0.58359377    -0.66760
O2023       O  0.50409629  0.25582689  0.98365571    -1.13360
C2024       C  0.94188148  0.17805153  0.02241516     1.04820
O2025       O  0.53213734  0.22088738  0.59871948    -0.79970
O2026       O  0.53202334  0.19079018  0.54491449    -0.67550
Ni2027     Ni  0.49175956  0.28730616  0.94936719     1.34870
C2028       C  0.52636116  0.18715166  0.51142600     0.83550
O2029       O  0.54847107  0.29109810  0.51801764    -0.80510
O2030       O  0.53629924  0.30439683  0.95696404    -0.90780
C2031       C  0.52302685  0.24458939  0.60474532     0.83130
O2032       O  0.97508265  0.31065219  0.98120229    -0.68980
O2033       O  0.96588063  0.17347726  0.54855288    -0.88270
C2034       C  0.96880122  0.30745678  0.01458919     0.83960
C2035       C  0.55370018  0.30648135  0.48796626     1.05520
H2036       H  0.96565811  0.23926020  0.55269174     0.37330
O2037       O  0.98491060  0.23198390  0.54349508    -1.10930
O2038       O  0.50160864  0.19858416  0.99014865    -0.67580
Ni2039     Ni  0.97004502  0.22839712  0.99479707     1.26350
O2040       O  0.98254129  0.28833066  0.53764284    -0.67810
O2041       O  0.93578953  0.20227096  0.00678743    -0.80100
C2042       C  0.94124106  0.24955032  0.92818065     0.83340
O2043       O  0.95339646  0.22738871  0.94580571    -0.67280
Ni2044     Ni  0.99856115  0.19845490  0.57411389     1.27450
Ni2045     Ni  0.51775091  0.26175223  0.53269155     1.26060
H2046       H  0.52227985  0.24701082  0.97430364     0.37880
O2047       O  0.94747277  0.27274842  0.69291597    -0.82070
O2048       O  0.03580424  0.26517645  0.83230273    -0.66760
O2049       O  0.50574617  0.25563992  0.73283061    -1.13360
C2050       C  0.94460184  0.17818696  0.77234299     1.04820
O2051       O  0.03550264  0.22113964  0.84782961    -0.79970
O2052       O  0.53489234  0.19177155  0.79342936    -0.67550
Ni2053     Ni  0.49320744  0.28707926  0.69857014     1.34870
C2054       C  0.52837965  0.18749158  0.76027706     0.83550
O2055       O  0.55060557  0.29067678  0.76601842    -0.80510
O2056       O  0.53816239  0.30365969  0.70491744    -0.90780
C2057       C  0.02650651  0.24486378  0.85393928     0.83130
O2058       O  0.97813894  0.31110576  0.73049070    -0.68980
O2059       O  0.96913194  0.17352177  0.79787206    -0.88270
C2060       C  0.97139060  0.30759937  0.76367150     0.83960
C2061       C  0.55569685  0.30590659  0.73580985     1.05520
H2062       H  0.96851526  0.23932117  0.80298648     0.37330
O2063       O  0.98749956  0.23205586  0.79328958    -1.10930
O2064       O  0.50307462  0.19852857  0.73945851    -0.67580
Ni2065     Ni  0.97179520  0.22848786  0.74484241     1.26350
O2066       O  0.98484108  0.28826337  0.78664760    -0.67810
O2067       O  0.93777292  0.20252509  0.75775809    -0.80100
C2068       C  0.94100519  0.24986005  0.67942695     0.83340
O2069       O  0.95392498  0.22769644  0.69627242    -0.67280
Ni2070     Ni  0.00181000  0.19858495  0.82344514     1.27450
Ni2071     Ni  0.52006352  0.26166445  0.78159669     1.26060
H2072       H  0.52368973  0.24670323  0.72321276     0.37880
C2073       C  0.47347723  0.22206008  0.87422953    -0.03030
C2074       C  0.99348577  0.24690437  0.86762516     0.06650
C2075       C  0.97774405  0.27345253  0.86506178    -0.03140
C2076       C  0.94330245  0.27391681  0.86950774    -0.03140
C2077       C  0.93035082  0.24991201  0.88828426     0.06790
C2078       C  0.43892969  0.22500252  0.87598161    -0.03340
Br2079     Br  0.40949632  0.19310648  0.88305511    -0.01890
Br2080     Br  0.49268798  0.18581182  0.89139472    -0.01960
Br2081     Br  0.91933213  0.30806211  0.86776884    -0.01920
Br2082     Br  0.00298357  0.30834856  0.86331621    -0.01900
C2083       C  0.46943130  0.22194171  0.62417826    -0.03030
C2084       C  0.48966306  0.24671931  0.61755381     0.06650
C2085       C  0.97411433  0.27338185  0.61510614    -0.03140
C2086       C  0.93982392  0.27393536  0.62028925    -0.03140
C2087       C  0.92754271  0.25013484  0.64012452     0.06790
C2088       C  0.43509814  0.22520148  0.62716902    -0.03340
Br2089     Br  0.40535985  0.19364164  0.63525375    -0.01890
Br2090     Br  0.48836541  0.18556628  0.64135151    -0.01960
Br2091     Br  0.91599300  0.30811629  0.61877546    -0.01920
Br2092     Br  0.99954795  0.30819063  0.61375764    -0.01900
C2093       C  0.75809222  0.04269008  0.88258144    -0.03030
C2094       C  0.76839925  0.51436017  0.89264041     0.06650
C2095       C  0.80302949  0.50758019  0.89134798    -0.03140
C2096       C  0.82296734  0.52753165  0.87287421    -0.03140
C2097       C  0.80429074  0.04645101  0.84725531     0.06790
C2098       C  0.77958699  0.06011633  0.86195784    -0.03340
Br2099     Br  0.76793348  0.09721145  0.84063682    -0.01890
Br2100     Br  0.71409131  0.05621770  0.88748278    -0.01960
Br2101     Br  0.86739631  0.51675180  0.86452934    -0.01920
Br2102     Br  0.82129863  0.47009954  0.90243980    -0.01900
C2103       C  0.73027779  0.01413919  0.62559688    -0.03030
C2104       C  0.75967282  0.00403363  0.61342530     0.06650
C2105       C  0.76254775  0.47509120  0.61090711    -0.03140
C2106       C  0.73310771  0.45829061  0.61059239    -0.03140
C2107       C  0.70744367  0.46785248  0.62898045     0.06790
C2108       C  0.70152165  0.99661583  0.62314727    -0.03340
Br2109     Br  0.65728073  0.01001851  0.62575284    -0.01890
Br2110     Br  0.72666520  0.05336649  0.62959033    -0.01960
Br2111     Br  0.73456340  0.41920406  0.60584022    -0.01920
Br2112     Br  0.80634469  0.45874540  0.61778473    -0.01900
O2113       O  0.71315552  0.99450622  0.39359240    -0.82070
O2114       O  0.73580525  0.51827909  0.05764540    -0.66760
O2115       O  0.73395662  0.51029899  0.46050045    -1.13360
C2116       C  0.81541967  0.93712210  0.50217871     1.04820
O2117       O  0.79047941  0.51556210  0.06323800    -0.79970
O2118       O  0.82922036  0.50079083  0.01784113    -0.67550
Ni2119     Ni  0.69217893  0.51141708  0.43009970     1.34870
C2120       C  0.82185581  0.51489119  0.98709478     0.83550
O2121       O  0.70633111  0.54571380  0.00244568    -0.80510
O2122       O  0.66714474  0.52968502  0.46304325    -0.90780
C2123       C  0.76343270  0.51717314  0.07749106     0.83130
O2124       O  0.68378025  0.97626415  0.45580842    -0.68980
O2125       O  0.81543431  0.94545960  0.03419642    -0.88270
C2126       C  0.68129546  0.97088456  0.49030426     0.83960
C2127       C  0.67641415  0.54506874  0.98843935     1.05520
H2128       H  0.74880240  0.96513016  0.02719963     0.37330
O2129       O  0.76172930  0.98098259  0.01748577    -1.10930
O2130       O  0.79896139  0.50687158  0.46327031    -0.67580
Ni2131     Ni  0.76331327  0.97755678  0.46795605     1.26350
O2132       O  0.69453670  0.98686684  0.01420503    -0.67810
O2133       O  0.79582955  0.94738921  0.47449966    -0.80100
C2134       C  0.74457277  0.99130064  0.39777229     0.83340
O2135       O  0.75565138  0.97073581  0.41843606    -0.67280
Ni2136     Ni  0.80183969  0.98026087  0.04940081     1.27450
Ni2137     Ni  0.73337752  0.51350928  0.00948992     1.26060
H2138       H  0.74607903  0.52699166  0.45232100     0.37880
O2139       O  0.69560770  0.96715615  0.19030678    -0.82070
O2140       O  0.75976892  0.51878555  0.31787627    -0.66760
O2141       O  0.73246122  0.50493226  0.22252243    -1.13360
C2142       C  0.82016293  0.93695900  0.25160415     1.04820
O2143       O  0.81070370  0.52145861  0.29851721    -0.79970
O2144       O  0.83458616  0.49475673  0.24884948    -0.67550
Ni2145     Ni  0.68882786  0.50487314  0.19977974     1.34870
C2146       C  0.82230050  0.51370392  0.22571911     0.83550
O2147       O  0.70539097  0.53662106  0.27155724    -0.80510
O2148       O  0.68281756  0.54223351  0.21227066    -0.90780
C2149       C  0.78971412  0.52979627  0.31784035     0.83130
O2150       O  0.66976411  0.99276312  0.24317204    -0.68980
O2151       O  0.82173674  0.94516805  0.28392067    -0.88270
C2152       C  0.68157047  0.97321452  0.26554065     0.83960
C2153       C  0.68419316  0.54798812  0.24581819     1.05520
H2154       H  0.76431197  0.96418296  0.28603650     0.37330
O2155       O  0.77268142  0.98092364  0.27267506    -1.10930
O2156       O  0.79454707  0.50822251  0.20702580    -0.67580
Ni2157     Ni  0.76484757  0.97582808  0.22366610     1.26350
O2158       O  0.70922931  0.97738074  0.28577817    -0.67810
O2159       O  0.80034765  0.94825212  0.22446835    -0.80100
C2160       C  0.71715369  0.96331420  0.16859863     0.83340
O2161       O  0.74848534  0.96710262  0.17808342    -0.67280
Ni2162     Ni  0.81638479  0.98322108  0.29303322     1.27450
Ni2163     Ni  0.74054889  0.50940803  0.27192524     1.26060
H2164       H  0.74132610  0.52188034  0.21019732     0.37880
O2165       O  0.88316886  0.56286458  0.07787297    -0.82070
O2166       O  0.89756060  0.56627015  0.40229934    -0.66760
O2167       O  0.91496791  0.56048492  0.01026654    -1.13360
C2168       C  0.92541670  0.65481339  0.50378989     1.04820
O2169       O  0.90813834  0.61161107  0.38695078    -0.79970
O2170       O  0.95658361  0.60685564  0.44479838    -0.67550
Ni2171     Ni  0.88905681  0.53737041  0.04185765     1.34870
C2172       C  0.97210970  0.60353018  0.47701705     0.83550
O2173       O  0.91425797  0.52301415  0.45606650    -0.80510
O2174       O  0.89503178  0.50935204  0.01109745    -0.90780
C2175       C  0.90171641  0.58713622  0.37797266     0.83130
O2176       O  0.85087752  0.55238736  0.01173852    -0.68980
O2177       O  0.93269634  0.65224406  0.47138723    -0.88270
C2178       C  0.84156073  0.54155017  0.48252729     0.83960
C2179       C  0.90459686  0.50413664  0.48057007     1.05520
H2180       H  0.87059391  0.60428451  0.45800122     0.37330
O2181       O  0.89449874  0.60112052  0.46191010    -1.10930
O2182       O  0.95749632  0.60339632  0.00652439    -0.67580
Ni2183     Ni  0.91014109  0.59858117  0.01474048     1.26350
O2184       O  0.85711906  0.54873894  0.45446172    -0.67810
O2185       O  0.90655306  0.63721361  0.01998840    -0.80100
C2186       C  0.90419627  0.58086962  0.08955014     0.83340
O2187       O  0.92313633  0.59416461  0.06747293    -0.67280
Ni2188     Ni  0.91815917  0.62905797  0.43209401     1.27450
Ni2189     Ni  0.90430614  0.56229739  0.45649643     1.26060
H2190       H  0.93810141  0.55510914  0.01650012     0.37880
O2191       O  0.87709685  0.56861686  0.32185562    -0.82070
O2192       O  0.90361157  0.56548962  0.15392098    -0.66760
O2193       O  0.91414669  0.56142673  0.26065220    -1.13360
C2194       C  0.92819352  0.65516370  0.25327666     1.04820
O2195       O  0.91048272  0.61120802  0.13704919    -0.79970
O2196       O  0.95848868  0.60584673  0.19529917    -0.67550
Ni2197     Ni  0.88542145  0.54000742  0.29000110     1.34870
C2198       C  0.97375484  0.60277524  0.22763371     0.83550
O2199       O  0.91762735  0.52332826  0.20916278    -0.80510
O2200       O  0.89513153  0.51033900  0.26277854    -0.90780
C2201       C  0.90613962  0.58619053  0.12920235     0.83130
O2202       O  0.84720208  0.55159329  0.25589881    -0.68980
O2203       O  0.93616797  0.65215536  0.22123836    -0.88270
C2204       C  0.84101832  0.54137017  0.22546031     0.83960
C2205       C  0.90725723  0.50469247  0.23354067     1.05520
H2206       H  0.87262534  0.60472976  0.20640849     0.37330
O2207       O  0.89650729  0.60163408  0.21119026    -1.10930
O2208       O  0.95878522  0.60302282  0.25697302    -0.67580
Ni2209     Ni  0.91081337  0.59952136  0.26424491     1.26350
O2210       O  0.85995020  0.54904732  0.20045703    -0.67810
O2211       O  0.90823372  0.63825257  0.26880692    -0.80100
C2212       C  0.90040532  0.58314584  0.33736026     0.83340
O2213       O  0.92214770  0.59491853  0.31740659    -0.67280
Ni2214     Ni  0.92107929  0.62901369  0.18184159     1.27450
Ni2215     Ni  0.90699736  0.56258398  0.20739049     1.26060
H2216       H  0.93675983  0.55535345  0.26886538     0.37880
O2217       O  0.56529848  0.61684941  0.39499213    -0.82070
O2218       O  0.56752490  0.60711547  0.07443218    -0.66760
O2219       O  0.58427457  0.61553840  0.47094888    -1.13360
C2220       C  0.58875653  0.51556298  0.50170013     1.04820
O2221       O  0.61284992  0.58151992  0.08961514    -0.79970
O2222       O  0.64410030  0.55280458  0.03693377    -0.67550
Ni2223     Ni  0.55274806  0.63510667  0.43485519     1.34870
C2224       C  0.65069764  0.56009007  0.00366715     0.83550
O2225       O  0.56853961  0.65235824  0.02097843    -0.80510
O2226       O  0.53633533  0.65843288  0.46737906    -0.90780
C2227       C  0.58844445  0.59428399  0.09954565     0.83130
O2228       O  0.52104885  0.60668795  0.44804979    -0.68980
O2229       O  0.58969637  0.52025156  0.03506925    -0.88270
C2230       C  0.50848857  0.60484601  0.47878239     0.83960
C2231       C  0.54609797  0.66568362  0.99880423     1.05520
H2232       H  0.55426587  0.56593038  0.02047611     0.37330
O2233       O  0.57664325  0.57386383  0.01988676    -1.10930
O2234       O  0.63304748  0.57704350  0.48124304    -0.67580
Ni2235     Ni  0.58587552  0.57533957  0.46959427     1.26350
O2236       O  0.52567101  0.60888082  0.00929282    -0.67810
O2237       O  0.58799693  0.53454467  0.47349636    -0.80100
C2238       C  0.58292903  0.59660972  0.38980335     0.83340
O2239       O  0.59439222  0.57856179  0.41674836    -0.67280
Ni2240     Ni  0.60199508  0.55182000  0.05926100     1.27450
Ni2241     Ni  0.57395619  0.61268697  0.02180910     1.26060
H2242       H  0.60623928  0.62406866  0.46914384     0.37880
O2243       O  0.56678120  0.61605768  0.14531859    -0.82070
O2244       O  0.56828068  0.60796820  0.32408869    -0.66760
O2245       O  0.58646989  0.61512141  0.22109357    -1.13360
C2246       C  0.59060110  0.51520883  0.25299290     1.04820
O2247       O  0.61323369  0.58233770  0.34092750    -0.79970
O2248       O  0.64696524  0.55584086  0.28959451    -0.67550
Ni2249     Ni  0.55438572  0.63437605  0.18496887     1.34870
C2250       C  0.65486180  0.56196608  0.25657154     0.83550
O2251       O  0.57029137  0.65254798  0.27019795    -0.80510
O2252       O  0.53770162  0.65795773  0.21692343    -0.90780
C2253       C  0.58848918  0.59519189  0.34983059     0.83130
O2254       O  0.52279164  0.60587306  0.19856930    -0.68980
O2255       O  0.59416693  0.52026489  0.28634918    -0.88270
C2256       C  0.51023014  0.60422318  0.22930748     0.83960
C2257       C  0.54776067  0.66568060  0.24796142     1.05520
H2258       H  0.55655285  0.56583655  0.27150915     0.37330
O2259       O  0.57886011  0.57387533  0.27068188    -1.10930
O2260       O  0.63576657  0.57514452  0.23073614    -0.67580
Ni2261     Ni  0.58785720  0.57479255  0.22023458     1.26350
O2262       O  0.52746148  0.60872312  0.25953321    -0.67810
O2263       O  0.58879592  0.53397710  0.22451433    -0.80100
C2264       C  0.58389764  0.59563076  0.13990430     0.83340
O2265       O  0.59546618  0.57754534  0.16686530    -0.67280
Ni2266     Ni  0.60428908  0.55242571  0.31050032     1.27450
Ni2267     Ni  0.57574062  0.61281992  0.27183798     1.26060
H2268       H  0.60846360  0.62354643  0.21915500     0.37880
O2269       O  0.58887734  0.88379509  0.09989553    -0.82070
O2270       O  0.57651171  0.89354886  0.41901936    -0.66760
O2271       O  0.60521994  0.88916992  0.02545122    -1.13360
C2272       C  0.59236793  0.98635906  0.99704245     1.04820
O2273       O  0.61717574  0.92443867  0.40890371    -0.79970
O2274       O  0.64776935  0.93411705  0.47216903    -0.67550
Ni2275     Ni  0.58222048  0.86365052  0.05901812     1.34870
C2276       C  0.65885850  0.94656751  0.49902314     0.83550
O2277       O  0.58789948  0.84859850  0.47030277    -0.80510
O2278       O  0.57243704  0.83765397  0.02620978    -0.90780
C2279       C  0.59431855  0.90854340  0.39675299     0.83130
O2280       O  0.54043341  0.88140185  0.04211095    -0.68980
O2281       O  0.60628953  0.98177989  0.46880833    -0.88270
C2282       C  0.52616576  0.88334327  0.00907331     0.83960
C2283       C  0.57439205  0.83176090  0.49426355     1.05520
H2284       H  0.56231257  0.93371370  0.46787648     0.37330
O2285       O  0.58542065  0.92825657  0.47419575    -1.10930
O2286       O  0.64333935  0.94278055  0.02758347    -0.67580
Ni2287     Ni  0.59635422  0.92859239  0.02747361     1.26350
O2288       O  0.54198174  0.88511326  0.48038289    -0.67810
O2289       O  0.58492387  0.96735031  0.02277762    -0.80100
C2290       C  0.59865641  0.90745346  0.10764877     0.83340
O2291       O  0.60471626  0.92737618  0.08236895    -0.67280
Ni2292     Ni  0.61154624  0.95106171  0.44156638     1.27450
Ni2293     Ni  0.58886854  0.88913122  0.47235377     1.26060
H2294       H  0.62907069  0.88588138  0.02926396     0.37880
O2295       O  0.58842559  0.88028629  0.35024535    -0.82070
O2296       O  0.58255726  0.89480889  0.16906746    -0.66760
O2297       O  0.60531999  0.88802771  0.27643211    -1.13360
C2298       C  0.59316594  0.98579512  0.24821071     1.04820
O2299       O  0.62622068  0.92359640  0.16346395    -0.79970
O2300       O  0.65601496  0.93828810  0.23124266    -0.67550
Ni2301     Ni  0.58255726  0.86146772  0.30841737     1.34870
C2302       C  0.66165385  0.94677430  0.26301483     0.83550
O2303       O  0.58997022  0.84835251  0.21904343    -0.80510
O2304       O  0.57344563  0.83688259  0.27418561    -0.90780
C2305       C  0.60210048  0.90968958  0.14847467     0.83130
O2306       O  0.54165526  0.87996430  0.29102312    -0.68980
O2307       O  0.60860601  0.98134067  0.22104341    -0.88270
C2308       C  0.52811945  0.88315272  0.25769168     0.83960
C2309       C  0.57598235  0.83131600  0.24231742     1.05520
H2310       H  0.56728489  0.93357208  0.21616482     0.37330
O2311       O  0.58985820  0.92769646  0.22502093    -1.11130
O2312       O  0.64135644  0.93960697  0.28671716    -0.67580
Ni2313     Ni  0.59450626  0.92722273  0.27797040     1.26350
O2314       O  0.54445519  0.88560710  0.22913024    -0.67810
O2315       O  0.58378219  0.96654492  0.27276892    -0.80100
C2316       C  0.59213311  0.90497086  0.35711912     0.83340
O2317       O  0.59555292  0.92547189  0.33199994    -0.67280
Ni2318     Ni  0.61848469  0.95079977  0.19600693     1.27450
Ni2319     Ni  0.59204828  0.88876956  0.22267813     1.26060
H2320       H  0.62925768  0.88543783  0.28142523     0.37880
O2321       O  0.94351300  0.88197970  0.41594578    -0.82070
O2322       O  0.93835592  0.88887442  0.08752868    -0.66760
O2323       O  0.91104835  0.88084223  0.48322955    -1.13360
C2324       C  0.89931342  0.97446880  0.47622891     1.04820
O2325       O  0.89820806  0.92005447  0.09056719    -0.79970
O2326       O  0.86042791  0.90998411  0.02784237    -0.67550
Ni2327     Ni  0.93240917  0.85648411  0.45675498     1.34870
C2328       C  0.84348938  0.91784478  0.49787533     0.83550
O2329       O  0.94335903  0.84298246  0.04671186    -0.80510
O2330       O  0.91968791  0.83038629  0.49535740    -0.90780
C2331       C  0.92079552  0.90342170  0.10599490     0.83130
O2332       O  0.97699295  0.86538170  0.47932723    -0.68980
O2333       O  0.87829165  0.96262502  0.99643426    -0.88270
C2334       C  0.98979302  0.88039654  0.50398412     0.83960
C2335       C  0.94125830  0.82570821  0.02228285     1.05520
H2336       H  0.94160969  0.93259671  0.02395728     0.37330
O2337       O  0.92083840  0.92210446  0.02026373    -1.10930
O2338       O  0.85920523  0.92047354  0.46837176    -0.67580
Ni2339     Ni  0.91018948  0.91944105  0.46725843     1.26350
O2340       O  0.97297073  0.89092481  0.02613615    -0.67810
O2341       O  0.91376443  0.96005373  0.45573122    -0.80100
C2342       C  0.92307357  0.89903241  0.39775485     0.83340
O2343       O  0.90414244  0.91380971  0.41438133    -0.67280
Ni2344     Ni  0.88859066  0.93981254  0.04256387     1.27450
Ni2345     Ni  0.92784658  0.88284302  0.03529661     1.26060
H2346       H  0.88794817  0.87444040  0.48282656     0.37880
O2347       O  0.94441382  0.88259138  0.16426033    -0.82070
O2348       O  0.93991601  0.88771601  0.33832078    -0.66760
O2349       O  0.91368318  0.88129505  0.23275825    -1.13360
C2350       C  0.90413879  0.97470488  0.22972291     1.04820
O2351       O  0.89732202  0.91659656  0.34047777    -0.79970
O2352       O  0.86383516  0.90847942  0.27573250    -0.67550
Ni2353     Ni  0.93421759  0.85701066  0.20548104     1.34870
C2354       C  0.84731916  0.91766000  0.24617216     0.83550
O2355       O  0.94543228  0.84247834  0.29614404    -0.80510
O2356       O  0.92222861  0.83065613  0.24420577    -0.90780
C2357       C  0.92067984  0.90118472  0.35647821     0.83130
O2358       O  0.97885128  0.86613629  0.22730362    -0.68980
O2359       O  0.88287695  0.96225772  0.24894512    -0.88270
C2360       C  0.99180455  0.88052045  0.25258053     0.83960
C2361       C  0.94375120  0.82575328  0.27116767     1.05520
H2362       H  0.94458909  0.93191660  0.27648281     0.37330
O2363       O  0.92389879  0.92153245  0.27163284    -1.10930
O2364       O  0.86343148  0.92173061  0.21728051    -0.67580
Ni2365     Ni  0.91413689  0.92020541  0.21810984     1.26350
O2366       O  0.97536112  0.89008802  0.27599178    -0.67810
O2367       O  0.91870600  0.96093802  0.20855370    -0.80100
C2368       C  0.92467851  0.90078258  0.14725982     0.83340
O2369       O  0.90769651  0.91618299  0.16496115    -0.67280
Ni2370     Ni  0.89065868  0.93796930  0.29370963     1.27450
Ni2371     Ni  0.93020345  0.88228638  0.28538960     1.26060
H2372       H  0.89044424  0.87525528  0.23195579     0.37880
O2373       O  0.94651138  0.77234470  0.44217583    -0.82070
O2374       O  0.53288209  0.76493941  0.08359403    -0.66760
O2375       O  0.50409605  0.75582761  0.48365542    -1.13360
C2376       C  0.94188142  0.67805205  0.52241460     1.04820
O2377       O  0.53213651  0.72088656  0.09872008    -0.79970
O2378       O  0.53202275  0.69078931  0.04491501    -0.67550
Ni2379     Ni  0.49175924  0.78730692  0.44936701     1.34870
C2380       C  0.52636077  0.68715097  0.01142643     0.83550
O2381       O  0.54847104  0.79109726  0.01801801    -0.80510
O2382       O  0.53629888  0.80439769  0.45696395    -0.90780
C2383       C  0.52302620  0.74458872  0.10474558     0.83130
O2384       O  0.97508222  0.81065283  0.48120219    -0.68980
O2385       O  0.96587996  0.67347666  0.04855299    -0.88270
C2386       C  0.96880090  0.80745740  0.51458914     0.83960
C2387       C  0.55370026  0.80648049  0.98796664     1.05520
H2388       H  0.96565770  0.73925966  0.05269180     0.37330
O2389       O  0.98491024  0.73198324  0.04349525    -1.10930
O2390       O  0.50160852  0.69858483  0.49014810    -0.67580
Ni2391     Ni  0.97004485  0.72839774  0.49479665     1.26350
O2392       O  0.98254119  0.78832999  0.03764299    -0.67810
O2393       O  0.93578941  0.70227148  0.50678689    -0.80100
C2394       C  0.94124099  0.74955101  0.42818024     0.83340
O2395       O  0.95339633  0.72738938  0.44580528    -0.67280
Ni2396     Ni  0.99856042  0.69845420  0.07411419     1.27450
Ni2397     Ni  0.51775072  0.76175146  0.03269181     1.26060
H2398       H  0.52227967  0.74701160  0.47430332     0.37880
O2399       O  0.94747438  0.77274895  0.19291708    -0.82070
O2400       O  0.03580553  0.76517584  0.33230380    -0.66760
O2401       O  0.50574775  0.75563991  0.23283149    -1.13360
C2402       C  0.94460318  0.67818675  0.27234271     1.04820
O2403       O  0.03550334  0.72113902  0.34783074    -0.79970
O2404       O  0.53489360  0.69177130  0.29342986    -0.67550
Ni2405     Ni  0.49320925  0.78707937  0.19857124     1.34870
C2406       C  0.52838115  0.68749159  0.26027740     0.83550
O2407       O  0.55060706  0.79067661  0.26601967    -0.80510
O2408       O  0.53816442  0.80365931  0.20491855    -0.90780
C2409       C  0.02650731  0.74486327  0.35394019     0.83130
O2410       O  0.97814132  0.81110603  0.23049198    -0.68980
O2411       O  0.96913317  0.67352144  0.29787188    -0.88270
C2412       C  0.97139241  0.80759937  0.26367256     0.83960
C2413       C  0.55569866  0.80590627  0.23581106     1.05520
H2414       H  0.96851650  0.73932081  0.30298688     0.37330
O2415       O  0.98750088  0.73205553  0.29329013    -1.10930
O2416       O  0.50307620  0.69852866  0.23945878    -0.67580
Ni2417     Ni  0.97179672  0.72848786  0.24484285     1.26350
O2418       O  0.98484239  0.78826304  0.28664853    -0.67810
O2419       O  0.93777435  0.70252495  0.25775796    -0.80100
C2420       C  0.94100642  0.74986065  0.17942797     0.83340
O2421       O  0.95392659  0.72769696  0.19627280    -0.67280
Ni2422     Ni  0.00181101  0.69858448  0.32344551     1.27450
Ni2423     Ni  0.52006494  0.76166417  0.28159764     1.26060
H2424       H  0.52369135  0.74670327  0.22321366     0.37880
C2425       C  0.47347727  0.72206025  0.37422950    -0.03030
C2426       C  0.99348638  0.74690426  0.36762555     0.06650
C2427       C  0.97774520  0.77345266  0.36506213    -0.03140
C2428       C  0.94330354  0.77391746  0.36950758    -0.03140
C2429       C  0.93035121  0.74991282  0.38828375     0.06790
C2430       C  0.43892974  0.72500320  0.37598117    -0.03340
Br2431     Br  0.40949561  0.69310761  0.38305414    -0.01890
Br2432     Br  0.49268708  0.68581164  0.39139454    -0.01960
Br2433     Br  0.91933396  0.80806312  0.36776883    -0.01920
Br2434     Br  0.00298545  0.80834835  0.36331700    -0.01900
C2435       C  0.46943007  0.72194183  0.12417831    -0.03030
C2436       C  0.48966236  0.74671912  0.11755376     0.06650
C2437       C  0.97411430  0.77338193  0.11510638    -0.03140
C2438       C  0.93982411  0.77393599  0.12029026    -0.03140
C2439       C  0.92754280  0.75013567  0.14012585     0.06790
C2440       C  0.43509715  0.72520220  0.12716989    -0.03340
Br2441     Br  0.40535818  0.69364290  0.13525522    -0.01890
Br2442     Br  0.48836336  0.68556605  0.14135133    -0.01960
Br2443     Br  0.91599411  0.80811730  0.11877717    -0.01920
Br2444     Br  0.99954868  0.80819035  0.11375757    -0.01900
C2445       C  0.75809266  0.54269075  0.38258103    -0.03030
C2446       C  0.76839982  0.01436099  0.39264088     0.06650
C2447       C  0.80303001  0.00758079  0.39134873    -0.03140
C2448       C  0.82296810  0.02753206  0.37287498    -0.03140
C2449       C  0.80429143  0.54645111  0.34725522     0.06790
C2450       C  0.77958750  0.56011669  0.36195713    -0.03340
Br2451     Br  0.76793388  0.59721152  0.34063491    -0.01890
Br2452     Br  0.71409196  0.55621872  0.38748252    -0.01960
Br2453     Br  0.86739719  0.01675199  0.36453091    -0.01920
Br2454     Br  0.82129869  0.97009998  0.40244054    -0.01900
C2455       C  0.73028350  0.51414167  0.12559773    -0.03030
C2456       C  0.75967816  0.50403639  0.11342525     0.06650
C2457       C  0.76255322  0.97509344  0.11090848    -0.03140
C2458       C  0.73311324  0.95829267  0.11059225    -0.03140
C2459       C  0.70744829  0.96785423  0.12897945     0.06790
C2460       C  0.70152709  0.49661857  0.12314706    -0.03340
Br2461     Br  0.65728612  0.51002153  0.12575167    -0.01890
Br2462     Br  0.72667118  0.55336890  0.12959135    -0.01960
Br2463     Br  0.73456998  0.91920616  0.10584017    -0.01920
Br2464     Br  0.80635062  0.95874847  0.11778636    -0.01900
O2465       O  0.71315527  0.99450501  0.89359223    -0.82070
O2466       O  0.73580445  0.51828037  0.55764549    -0.66760
O2467       O  0.73395611  0.51029791  0.96050012    -1.13360
C2468       C  0.81541928  0.93712102  0.00217910     1.04820
O2469       O  0.79047846  0.51556164  0.56324151    -0.79970
O2470       O  0.82921923  0.50079388  0.51784313    -0.67550
Ni2471     Ni  0.69217858  0.51141603  0.93009934     1.34870
C2472       C  0.82185569  0.51489258  0.48709533     0.83550
O2473       O  0.70633149  0.54571504  0.50244553    -0.80510
O2474       O  0.66714450  0.52968420  0.96304276    -0.90780
C2475       C  0.76343084  0.51717250  0.57749284     0.83130
O2476       O  0.68377984  0.97626320  0.95580825    -0.68980
O2477       O  0.81543606  0.94546147  0.53419569    -0.88270
C2478       C  0.68129518  0.97088356  0.99030411     0.83960
C2479       C  0.67641442  0.54506968  0.48843966     1.05520
H2480       H  0.74880239  0.96513122  0.52720022     0.37330
O2481       O  0.76172943  0.98098358  0.51748639    -1.10930
O2482       O  0.79896063  0.50687133  0.96326997    -0.67580
Ni2483     Ni  0.76331323  0.97755595  0.96795557     1.26350
O2484       O  0.69453681  0.98686797  0.51420509    -0.67810
O2485       O  0.79583026  0.94738886  0.97449948    -0.80100
C2486       C  0.74457257  0.99129971  0.89777194     0.83340
O2487       O  0.75565149  0.97073494  0.91843558    -0.67280
Ni2488     Ni  0.80183974  0.98026157  0.54940185     1.27450
Ni2489     Ni  0.73337772  0.51351043  0.50949018     1.26060
H2490       H  0.74607831  0.52699071  0.95232074     0.37880
O2491       O  0.69560543  0.96715561  0.69030855    -0.82070
O2492       O  0.75976774  0.51878586  0.81787605    -0.66760
O2493       O  0.73245925  0.50493228  0.72252245    -1.13360
C2494       C  0.82016138  0.93695938  0.75160351     1.04820
O2495       O  0.81070227  0.52145908  0.79851641    -0.79970
O2496       O  0.83458427  0.49475708  0.74884829    -0.67550
Ni2497     Ni  0.68882564  0.50487279  0.69978058     1.34870
C2498       C  0.82229845  0.51370434  0.72571816     0.83550
O2499       O  0.70538943  0.53662117  0.77155734    -0.80510
O2500       O  0.68281558  0.54223334  0.71227087    -0.90780
C2501       C  0.78971297  0.52979653  0.81784003     0.83130
O2502       O  0.66976250  0.99276328  0.74317346    -0.68980
O2503       O  0.82173539  0.94516853  0.78391999    -0.88270
C2504       C  0.68156901  0.97321457  0.76554172     0.83960
C2505       C  0.68419147  0.54798814  0.74581834     1.05520
H2506       H  0.76431075  0.96418326  0.78603630     0.37330
O2507       O  0.77268001  0.98092395  0.77267470    -1.10930
O2508       O  0.79454491  0.50822286  0.70702502    -0.67580
Ni2509     Ni  0.76484569  0.97582825  0.72366577     1.26350
O2510       O  0.70922814  0.97738076  0.78577873    -0.67810
O2511       O  0.80034591  0.94825239  0.72446777    -0.80100
C2512       C  0.71715071  0.96331331  0.66859982     0.83340
O2513       O  0.74848253  0.96710239  0.67808332    -0.67280
Ni2514     Ni  0.81638347  0.98322156  0.79303241     1.27450
Ni2515     Ni  0.74054740  0.50940820  0.77192518     1.26060
H2516       H  0.74132387  0.52188037  0.71019707     0.37880
O2517       O  0.88316803  0.56286543  0.57787243    -0.82070
O2518       O  0.89755929  0.56626987  0.90229926    -0.66760
O2519       O  0.91496795  0.56048541  0.51026666    -1.13360
C2520       C  0.92541642  0.65481289  0.00379016     1.04820
O2521       O  0.90813751  0.61161076  0.88695097    -0.79970
O2522       O  0.95658326  0.60685536  0.94479830    -0.67550
Ni2523     Ni  0.88905603  0.53737125  0.54185721     1.34870
C2524       C  0.97210945  0.60352983  0.97701695     0.83550
O2525       O  0.91425726  0.52301368  0.95606617    -0.80510
O2526       O  0.89503102  0.50935280  0.51109707    -0.90780
C2527       C  0.90171507  0.58713603  0.87797265     0.83130
O2528       O  0.85087778  0.55238921  0.51173725    -0.68980
O2529       O  0.93269594  0.65224363  0.97138744    -0.88270
C2530       C  0.84156061  0.54154895  0.98252799     0.83960
C2531       C  0.90459690  0.50413604  0.98057007     1.05520
H2532       H  0.87059351  0.60428411  0.95800167     0.37330
O2533       O  0.89449833  0.60112009  0.96191036    -1.10930
O2534       O  0.95749650  0.60339672  0.50652447    -0.67580
Ni2535     Ni  0.91014117  0.59858170  0.51474033     1.26350
O2536       O  0.85711857  0.54873861  0.95446235    -0.67810
O2537       O  0.90655322  0.63721418  0.51998806    -0.80100
C2538       C  0.90419552  0.58087028  0.58954988     0.83340
O2539       O  0.92313592  0.59416517  0.56747293    -0.67280
Ni2540     Ni  0.91815865  0.62905759  0.93209422     1.27450
Ni2541     Ni  0.90430557  0.56229697  0.95649640     1.26060
H2542       H  0.93810137  0.55510951  0.51650067     0.37880
O2543       O  0.87709471  0.56861737  0.82185525    -0.82070
O2544       O  0.90361022  0.56549010  0.65392065    -0.66760
O2545       O  0.91414463  0.56142701  0.76065193    -1.13360
C2546       C  0.92819203  0.65516390  0.75327671     1.04820
O2547       O  0.91048142  0.61120854  0.63704906    -0.79970
O2548       O  0.95848707  0.60584689  0.69529916    -0.67550
Ni2549     Ni  0.88541910  0.54000789  0.79000065     1.34870
C2550       C  0.97375314  0.60277524  0.72763373     0.83550
O2551       O  0.91762539  0.52332854  0.70916259    -0.80510
O2552       O  0.89512926  0.51033946  0.76277821    -0.90780
C2553       C  0.90613849  0.58619107  0.62920212     0.83130
O2554       O  0.84719989  0.55159382  0.75589801    -0.68980
O2555       O  0.93616655  0.65215555  0.72123845    -0.88270
C2556       C  0.84101625  0.54137067  0.72545948     0.83960
C2557       C  0.90725519  0.50469282  0.73354053     1.05520
H2558       H  0.87262360  0.60473024  0.70640815     0.37330
O2559       O  0.89650565  0.60163447  0.71119003    -1.10930
O2560       O  0.95878347  0.60302286  0.75697299    -0.67580
Ni2561     Ni  0.91081158  0.59952162  0.76424473     1.26350
O2562       O  0.85994833  0.54904779  0.70045637    -0.67810
O2563       O  0.90823214  0.63825281  0.76880690    -0.80100
C2564       C  0.90040350  0.58314596  0.83736008     0.83340
O2565       O  0.92214589  0.59491861  0.81740641    -0.67280
Ni2566     Ni  0.92107787  0.62901404  0.68184156     1.27450
Ni2567     Ni  0.90699555  0.56258433  0.70739020     1.26060
H2568       H  0.93675768  0.55535361  0.76886524     0.37880
O2569       O  0.56529815  0.61684936  0.89499221    -0.82070
O2570       O  0.56752481  0.60711610  0.57443212    -0.66760
O2571       O  0.58427432  0.61553780  0.97094887    -1.13360
C2572       C  0.58875614  0.51556233  0.00169996     1.04820
O2573       O  0.61284971  0.58152047  0.58961538    -0.79970
O2574       O  0.64410040  0.55280504  0.53693418    -0.67550
Ni2575     Ni  0.55274787  0.63510638  0.93485539     1.34870
C2576       C  0.65069794  0.56009086  0.50366770     0.83550
O2577       O  0.56853965  0.65235886  0.52097820    -0.80510
O2578       O  0.53633517  0.65843239  0.96737943    -0.90780
C2579       C  0.58844409  0.59428445  0.59954572     0.83130
O2580       O  0.52104857  0.60668769  0.94804969    -0.68980
O2581       O  0.58969633  0.52025218  0.53506938    -0.88270
C2582       C  0.50848834  0.60484560  0.97878230     0.83960
C2583       C  0.54609807  0.66568421  0.49880385     1.05520
H2584       H  0.55426600  0.56593099  0.52047594     0.37330
O2585       O  0.57664339  0.57386446  0.51988679    -1.10930
O2586       O  0.63304705  0.57704249  0.98124226    -0.67580
Ni2587     Ni  0.58587496  0.57533894  0.96959410     1.26350
O2588       O  0.52567118  0.60888142  0.50929283    -0.67810
O2589       O  0.58799614  0.53454400  0.97349613    -0.80100
C2590       C  0.58292814  0.59660943  0.88980318     0.83340
O2591       O  0.59439108  0.57856120  0.91674798    -0.67280
Ni2592     Ni  0.60199502  0.55182058  0.55926118     1.27450
Ni2593     Ni  0.57395630  0.61268759  0.52180907     1.26060
H2594       H  0.60623910  0.62406793  0.96914382     0.37880
O2595       O  0.56677944  0.61605731  0.64531852    -0.82070
O2596       O  0.56827929  0.60796810  0.82408863    -0.66760
O2597       O  0.58646816  0.61512142  0.72109341    -1.13360
C2598       C  0.59059953  0.51520879  0.75299293     1.04820
O2599       O  0.61323234  0.58233760  0.84092700    -0.79970
O2600       O  0.64696324  0.55584005  0.78959449    -0.67550
Ni2601     Ni  0.55438377  0.63437571  0.68496871     1.34870
C2602       C  0.65486019  0.56196603  0.75657182     0.83550
O2603       O  0.57028955  0.65254792  0.77019769    -0.80510
O2604       O  0.53769964  0.65795742  0.71692322    -0.90780
C2605       C  0.58848795  0.59519174  0.84983035     0.83130
O2606       O  0.52279001  0.60587254  0.69856946    -0.68980
O2607       O  0.59416426  0.52026479  0.78634923    -0.88270
C2608       C  0.51022845  0.60422292  0.72930758     0.83960
C2609       C  0.54775883  0.66568046  0.74796108     1.05520
H2610       H  0.55655118  0.56583653  0.77150863     0.37330
O2611       O  0.57885848  0.57387530  0.77068164    -1.10930
O2612       O  0.63576531  0.57514513  0.73073671    -0.67580
Ni2613     Ni  0.58785602  0.57479259  0.72023451     1.26350
O2614       O  0.52745979  0.60872301  0.75953325    -0.67810
O2615       O  0.58879526  0.53397711  0.72451439    -0.80100
C2616       C  0.58389670  0.59563085  0.63990432     0.83340
O2617       O  0.59546559  0.57754560  0.66686537    -0.67280
Ni2618     Ni  0.60428707  0.55242556  0.81050022     1.27450
Ni2619     Ni  0.57573895  0.61281988  0.77183782     1.26060
H2620       H  0.60846174  0.62354664  0.71915478     0.37880
O2621       O  0.58887740  0.88379564  0.59989544    -0.82070
O2622       O  0.57651130  0.89354801  0.91901947    -0.66760
O2623       O  0.60522006  0.88917061  0.52545120    -1.13360
C2624       C  0.59236828  0.98635975  0.49704257     1.04820
O2625       O  0.61717512  0.92443795  0.90890354    -0.79970
O2626       O  0.64776890  0.93411619  0.97216887    -0.67550
Ni2627     Ni  0.58222050  0.86365119  0.55901799     1.34870
C2628       C  0.65885818  0.94656661  0.99902298     0.83550
O2629       O  0.58789953  0.84859773  0.97030293    -0.80510
O2630       O  0.57243692  0.83765473  0.52620957    -0.90780
C2631       C  0.59431783  0.90854271  0.89675295     0.83130
O2632       O  0.54043351  0.88140266  0.54211091    -0.68980
O2633       O  0.60628923  0.98177917  0.96880826    -0.88270
C2634       C  0.52616583  0.88334410  0.50907329     0.83960
C2635       C  0.57439219  0.83176011  0.99426376     1.05520
H2636       H  0.56231219  0.93371288  0.96787650     0.37330
O2637       O  0.58542030  0.92825581  0.97419573    -1.10930
O2638       O  0.64333964  0.94278132  0.52758364    -0.67580
Ni2639     Ni  0.59635445  0.92859310  0.52747367     1.26350
O2640       O  0.54198168  0.88511237  0.98038295    -0.67810
O2641       O  0.58492418  0.96735101  0.52277771    -0.80100
C2642       C  0.59865629  0.90745402  0.60764879     0.83340
O2643       O  0.60471625  0.92737680  0.58236908    -0.67280
Ni2644     Ni  0.61154581  0.95106096  0.94156629     1.27450
Ni2645     Ni  0.58886838  0.88913046  0.97235382     1.26060
H2646       H  0.62907079  0.88588202  0.52926396     0.37880
O2647       O  0.58842457  0.88028584  0.85024504    -0.82070
O2648       O  0.58255636  0.89480938  0.66906714    -0.66760
O2649       O  0.60531857  0.88802765  0.77643187    -1.13360
C2650       C  0.59316459  0.98579508  0.74821086     1.04820
O2651       O  0.62622019  0.92359655  0.66346443    -0.79970
O2652       O  0.65601379  0.93828792  0.73124366    -0.67550
Ni2653     Ni  0.58255555  0.86146765  0.80841676     1.34870
C2654       C  0.66165252  0.94677424  0.76301575     0.83550
O2655       O  0.58996880  0.84835273  0.71904281    -0.80510
O2656       O  0.57344336  0.83688290  0.77418460    -0.90780
C2657       C  0.60209996  0.90969000  0.64847472     0.83130
O2658       O  0.54165391  0.87996485  0.79102267    -0.68980
O2659       O  0.60860497  0.98134068  0.72104377    -0.88270
C2660       C  0.52811807  0.88315311  0.75769123     0.83960
C2661       C  0.57598042  0.83131631  0.74231648     1.05520
H2662       H  0.56728385  0.93357233  0.71616462     0.37330
O2663       O  0.58985708  0.92769661  0.72502090    -1.11130
O2664       O  0.64135492  0.93960691  0.78671784    -0.67580
Ni2665     Ni  0.59450480  0.92722265  0.77797039     1.26350
O2666       O  0.54445384  0.88560739  0.72912979    -0.67810
O2667       O  0.58378071  0.96654485  0.77276898    -0.80100
C2668       C  0.59213193  0.90497038  0.85711901     0.83340
O2669       O  0.59555121  0.92547157  0.83199993    -0.67280
Ni2670     Ni  0.61848397  0.95079986  0.69600739     1.27450
Ni2671     Ni  0.59204702  0.88876975  0.72267784     1.26060
H2672       H  0.62925624  0.88543773  0.78142511     0.37880
O2673       O  0.94351249  0.88197935  0.91594552    -0.82070
O2674       O  0.93835556  0.88887512  0.58752869    -0.66760
O2675       O  0.91104825  0.88084159  0.98322962    -1.13360
C2676       C  0.89931332  0.97446820  0.97622888     1.04820
O2677       O  0.89820716  0.92005475  0.59056693    -0.79970
O2678       O  0.86042776  0.90998452  0.52784164    -0.67550
Ni2679     Ni  0.93240903  0.85648360  0.95675480     1.34870
C2680       C  0.84348942  0.91784410  0.99787601     0.83550
O2681       O  0.94335904  0.84298312  0.54671191    -0.80510
O2682       O  0.91968808  0.83038562  0.99535724    -0.90780
C2683       C  0.92079480  0.90342222  0.60599479     0.83130
O2684       O  0.97699286  0.86538116  0.97932694    -0.68980
O2685       O  0.87829161  0.96262565  0.49643412    -0.88270
C2686       C  0.98979298  0.88039583  0.00398401     0.83960
C2687       C  0.94125817  0.82570883  0.52228294     1.05520
H2688       H  0.94160946  0.93259737  0.52395749     0.37330
O2689       O  0.92083822  0.92210507  0.52026374    -1.10930
O2690       O  0.85920513  0.92047282  0.96837234    -0.67580
Ni2691     Ni  0.91018929  0.91944042  0.96725848     1.26350
O2692       O  0.97297071  0.89092555  0.52613620    -0.67810
O2693       O  0.91376420  0.96005309  0.95573112    -0.80100
C2694       C  0.92307275  0.89903189  0.89775473     0.83340
O2695       O  0.90414170  0.91380908  0.91438142    -0.67280
Ni2696     Ni  0.88859020  0.93981297  0.54256367     1.27450
Ni2697     Ni  0.92784650  0.88284366  0.53529659     1.26060
H2698       H  0.88794810  0.87443971  0.98282673     0.37880
O2699       O  0.94441275  0.88259185  0.66426025    -0.82070
O2700       O  0.93991493  0.88771583  0.83832043    -0.66760
O2701       O  0.91368176  0.88129529  0.73275792    -1.13360
C2702       C  0.90413716  0.97470512  0.72972328     1.04820
O2703       O  0.89732019  0.91659549  0.84047773    -0.79970
O2704       O  0.86383332  0.90847943  0.77573196    -0.67550
Ni2705     Ni  0.93421618  0.85701098  0.70548063     1.34870
C2706       C  0.84731757  0.91766031  0.74617157     0.83550
O2707       O  0.94543092  0.84247835  0.79614344    -0.80510
O2708       O  0.92222694  0.83065641  0.74420516    -0.90780
C2709       C  0.92067858  0.90118417  0.85647805     0.83130
O2710       O  0.97884993  0.86613636  0.72730337    -0.68980
O2711       O  0.88287552  0.96225795  0.74894586    -0.88270
C2712       C  0.99180316  0.88052067  0.75258013     0.83960
C2713       C  0.94374958  0.82575338  0.77116696     1.05520
H2714       H  0.94458747  0.93191665  0.77648297     0.37330
O2715       O  0.92389724  0.92153245  0.77163285    -1.10930
O2716       O  0.86343011  0.92173103  0.71728012    -0.67580
Ni2717     Ni  0.91413551  0.92020569  0.71810980     1.26350
O2718       O  0.97535969  0.89008826  0.77599131    -0.67810
O2719       O  0.91870445  0.96093829  0.70855407    -0.80100
C2720       C  0.92467754  0.90078309  0.64725971     0.83340
O2721       O  0.90769542  0.91618347  0.66496099    -0.67280
Ni2722     Ni  0.89065704  0.93796890  0.79370992     1.27450
Ni2723     Ni  0.93020210  0.88228639  0.78538928     1.26060
H2724       H  0.89044281  0.87525555  0.73195542     0.37880
O2725       O  0.94651150  0.77234414  0.94217596    -0.82070
O2726       O  0.53288199  0.76494013  0.58359382    -0.66760
O2727       O  0.50409610  0.75582689  0.98365569    -1.13360
C2728       C  0.94188118  0.67805153  0.02241489     1.04820
O2729       O  0.53213683  0.72088725  0.59871956    -0.79970
O2730       O  0.53202300  0.69079009  0.54491446    -0.67550
Ni2731     Ni  0.49175944  0.78730618  0.94936720     1.34870
C2732       C  0.52636092  0.68715165  0.51142594     0.83550
O2733       O  0.54847089  0.79109804  0.51801777    -0.80510
O2734       O  0.53629914  0.80439682  0.95696415    -0.90780
C2735       C  0.52302637  0.74458929  0.60474532     0.83130
O2736       O  0.97508254  0.81065220  0.98120231    -0.68980
O2737       O  0.96588027  0.67347723  0.54855265    -0.88270
C2738       C  0.96880108  0.80745677  0.01458921     0.83960
C2739       C  0.55370007  0.80648131  0.48796641     1.05520
H2740       H  0.96565779  0.73926017  0.55269157     0.37330
O2741       O  0.98491030  0.73198386  0.54349498    -1.10930
O2742       O  0.50160843  0.69858418  0.99014854    -0.67580
Ni2743     Ni  0.97004481  0.72839713  0.99479693     1.26350
O2744       O  0.98254109  0.78833061  0.53764285    -0.67810
O2745       O  0.93578928  0.70227096  0.00678715    -0.80100
C2746       C  0.94124092  0.74955040  0.92818054     0.83340
O2747       O  0.95339635  0.72738878  0.94580555    -0.67280
Ni2748     Ni  0.99856072  0.69845482  0.57411379     1.27450
Ni2749     Ni  0.51775067  0.76175217  0.53269156     1.26060
H2750       H  0.52227967  0.74701082  0.97430363     0.37880
O2751       O  0.94747268  0.77274862  0.69291598    -0.82070
O2752       O  0.03580410  0.76517631  0.83230276    -0.66760
O2753       O  0.50574606  0.75563997  0.73283058    -1.13360
C2754       C  0.94460161  0.67818698  0.77234271     1.04820
O2755       O  0.03550236  0.72113950  0.84782959    -0.79970
O2756       O  0.53489211  0.69177153  0.79342920    -0.67550
Ni2757     Ni  0.49320740  0.78707936  0.69857019     1.34870
C2758       C  0.52837945  0.68749161  0.76027687     0.83550
O2759       O  0.55060550  0.79067674  0.76601851    -0.80510
O2760       O  0.53816240  0.80365968  0.70491752    -0.90780
C2761       C  0.02650627  0.74486365  0.85393925     0.83130
O2762       O  0.97813901  0.81110585  0.73049082    -0.68980
O2763       O  0.96913169  0.67352175  0.79787180    -0.88270
C2764       C  0.97139060  0.80759940  0.76367159     0.83960
C2765       C  0.55569683  0.80590655  0.73580995     1.05520
H2766       H  0.96851508  0.73932113  0.80298637     0.37330
O2767       O  0.98749938  0.73205582  0.79328948    -1.10930
O2768       O  0.50307444  0.69852863  0.73945832    -0.67580
Ni2769     Ni  0.97179505  0.72848792  0.74484228     1.26350
O2770       O  0.98484099  0.78826333  0.78664764    -0.67810
O2771       O  0.93777273  0.70252513  0.75775784    -0.80100
C2772       C  0.94100500  0.74986027  0.67942693     0.83340
O2773       O  0.95392483  0.72769663  0.69627227    -0.67280
Ni2774     Ni  0.00180975  0.69858488  0.82344498     1.27450
Ni2775     Ni  0.52006341  0.76166440  0.78159668     1.26060
H2776       H  0.52368961  0.74670327  0.72321272     0.37880
C2777       C  0.47347690  0.72206005  0.87422937    -0.03030
C2778       C  0.99348550  0.74690431  0.86762506     0.06650
C2779       C  0.97774388  0.77345250  0.86506170    -0.03140
C2780       C  0.94330228  0.77391687  0.86950763    -0.03140
C2781       C  0.93035059  0.74991210  0.88828416     0.06790
C2782       C  0.43892937  0.72500258  0.87598147    -0.03340
Br2783     Br  0.40949588  0.69310662  0.88305493    -0.01890
Br2784     Br  0.49268750  0.68581173  0.89139449    -0.01960
Br2785     Br  0.91933208  0.80806222  0.86776877    -0.01920
Br2786     Br  0.00298353  0.80834848  0.86331624    -0.01900
C2787       C  0.46943061  0.72194182  0.62417805    -0.03030
C2788       C  0.48966252  0.74671933  0.61755365     0.06650
C2789       C  0.97411397  0.77338194  0.61510605    -0.03140
C2790       C  0.93982360  0.77393560  0.62028925    -0.03140
C2791       C  0.92754231  0.75013512  0.64012455     0.06790
C2792       C  0.43509750  0.72520174  0.62716895    -0.03340
Br2793     Br  0.40535900  0.69364205  0.63525372    -0.01890
Br2794     Br  0.48836447  0.68556628  0.64135122    -0.01960
Br2795     Br  0.91599289  0.80811662  0.61877558    -0.01920
Br2796     Br  0.99954779  0.80819062  0.61375759    -0.01900
C2797       C  0.75809207  0.54269002  0.88258130    -0.03030
C2798       C  0.76839941  0.01436024  0.89264062     0.06650
C2799       C  0.80302966  0.00758027  0.89134822    -0.03140
C2800       C  0.82296750  0.02753171  0.87287439    -0.03140
C2801       C  0.80429060  0.54645100  0.84725518     0.06790
C2802       C  0.77958686  0.56011630  0.86195777    -0.03340
Br2803     Br  0.76793342  0.59721147  0.84063691    -0.01890
Br2804     Br  0.71409116  0.55621763  0.88748262    -0.01960
Br2805     Br  0.86739647  0.01675183  0.86452955    -0.01920
Br2806     Br  0.82129882  0.97009962  0.90244012    -0.01900
C2807       C  0.73027824  0.51413953  0.62559686    -0.03030
C2808       C  0.75967318  0.50403389  0.61342519     0.06650
C2809       C  0.76254750  0.97509094  0.61090717    -0.03140
C2810       C  0.73310756  0.95829024  0.61059267    -0.03140
C2811       C  0.70744356  0.96785206  0.62898081     0.06790
C2812       C  0.70152198  0.49661630  0.62314712    -0.03340
Br2813     Br  0.65728114  0.51001916  0.62575260    -0.01890
Br2814     Br  0.72666589  0.55336683  0.62959039    -0.01960
Br2815     Br  0.73456342  0.91920368  0.60584064    -0.01920
Br2816     Br  0.80634451  0.95874526  0.61778483    -0.01900
loop_ 
_geom_bond_atom_site_label_1 
_geom_bond_atom_site_label_2 
_geom_bond_distance 
_geom_bond_site_symmetry_2 
_ccdc_geom_bond_type 
O1           C22   1.263       .  A
O1         Ni711   1.922       .  S
O2           C11   1.257       .  A
O2          Ni25   1.798       .  S
O3           Ni7   1.908       .  S
O3         Ni377   1.823       .  S
O3         Ni723   1.972   1_545  S
O3           H26   0.962       .  S
C4           O21   1.275       .  A
C4          O365   1.284       .  A
C4          C216   1.512       .  S
O5           C11   1.260       .  A
O5         Ni728   1.911   1_545  S
O6            C8   1.258   1_554  A
O6         Ni728   1.861   1_545  S
Ni7          O10   1.948       .  S
Ni7         O705   1.922   1_545  S
Ni7         O716   1.881   1_545  S
C8          O370   1.281       .  A
C8          C418   1.491       .  S
O9           C15   1.253   1_554  A
O9          Ni25   1.896       .  S
O10         C367   1.274       .  A
C11         C344   1.415       .  S
O12          C14   1.275       .  A
O12        Ni711   1.881       .  S
O13         C356   1.284       .  A
O13         Ni24   1.938       .  S
C14         O372   1.294       .  A
C14         C164   1.482       .  S
C15         O362   1.274       .  A
C15         C112   1.468   1_556  S
H16          O17   0.966       .  S
O17         Ni24   1.883       .  S
O17        Ni729   1.939       .  S
O17        Ni371   1.850   1_554  S
O18         C360   1.281       .  A
O18        Ni723   1.986   1_545  S
Ni19         O23   1.873       .  S
Ni19         O21   1.957       .  S
Ni19        O722   1.986       .  S
Ni19        O707   1.972       .  S
Ni19        O369   1.850       .  S
O20         C366   1.294   1_554  A
O20        Ni729   1.998       .  S
C22          O23   1.238       .  A
C22         C334   1.453       .  S
Ni24        O709   1.911       .  S
Ni24        O710   1.861       .  S
Ni25        O724   1.998   1_545  S
Ni25        O355   1.823   1_554  S
Ni25        O721   1.939   1_545  S
O27          C48   1.266       .  A
O27        Ni737   1.922       .  S
O28          C37   1.298       .  A
O28         Ni51   1.874       .  S
O29         Ni33   1.855       .  S
O29         Ni51   1.842       .  S
O29        Ni749   1.932   1_545  S
O29          H52   0.964       .  S
C30          O47   1.283       .  A
C30          O39   1.286       .  A
C30         C242   1.495       .  S
O31          C37   1.258       .  A
O31        Ni754   1.900   1_545  S
O32          C34   1.246   1_565  A
O32        Ni754   1.866       .  S
Ni33         O36   1.936       .  S
Ni33        O731   1.922   1_545  S
Ni33        O742   1.863   1_545  S
C34          O44   1.280       .  A
C34          C92   1.510       .  S
O35          C41   1.284       .  A
O35         Ni51   1.950       .  S
O36          C41   1.287       .  A
C37         C337   1.479       .  S
O38          C40   1.244       .  A
O38        Ni737   1.863       .  S
O39         Ni50   1.924       .  S
C40          O46   1.290       .  A
C40         C190   1.491       .  S
C41         C138   1.482       .  S
H42          O43   0.965       .  S
O43         Ni45   1.834       .  S
O43         Ni50   1.834       .  S
O43        Ni755   1.905       .  S
O44        Ni749   2.013   1_545  S
Ni45         O49   1.820       .  S
Ni45         O47   1.970       .  S
Ni45        O748   2.013       .  S
Ni45        O733   1.932       .  S
O46        Ni755   2.014       .  S
C48          O49   1.280       .  A
C48         C347   1.456       .  S
Ni50        O735   1.900       .  S
Ni50        O736   1.866       .  S
Ni51        O750   2.014   1_545  S
Ni51        O747   1.905   1_545  S
O53          C74   1.270       .  A
O53         Ni59   1.941       .  S
O54          C63   1.284       .  A
O54         Ni77   1.964       .  S
O55         Ni59   1.884       .  S
O55         Ni71   1.880       .  S
O55        Ni429   1.964   1_554  S
O55          H78   0.966       .  S
C56          O65   1.273       .  A
C56         O425   1.259       .  A
C56         C264   1.481       .  S
O57          C63   1.273       .  A
O57         Ni76   1.941       .  S
O58          C60   1.270       .  A
O58         Ni76   1.886       .  S
Ni59         O62   1.892       .  S
Ni59         O64   1.898       .  S
C60         O422   1.283       .  A
C60        C1526   1.452       .  S
O61          C67   1.284       .  A
O61         Ni77   1.948       .  S
O62         C419   1.274   1_554  A
C63         C100   1.518       .  S
O64         C418   1.261   1_554  A
O65         Ni76   1.954       .  S
C66          O72   1.268       .  A
C66         O416   1.261       .  A
C66         C360   1.491       .  S
C67         O414   1.274       .  A
C67         C916   1.464   1_545  S
H68          O69   0.967       .  S
O69         Ni77   1.960       .  S
O69         Ni76   1.927       .  S
O69        Ni423   1.962       .  S
O70         C412   1.283   1_554  A
O70         Ni71   1.955       .  S
Ni71         O75   1.936       .  S
Ni71         O73   1.905       .  S
Ni71        O421   1.962   1_554  S
O72         Ni77   1.979       .  S
O73         C408   1.259       .  A
C74          O75   1.274       .  A
C74          C89   1.498       .  S
Ni77        O407   1.964       .  S
O79         C100   1.275       .  A
O79         Ni85   1.964       .  S
O80          C89   1.277       .  A
O80        Ni103   1.939       .  S
O81         Ni85   1.867       .  S
O81        Ni103   1.937       .  S
O81         Ni97   1.866       .  S
O81         H104   0.966       .  S
C82          O99   1.257       .  A
C82          O91   1.274       .  A
C82         C290   1.480       .  S
O83          C89   1.275       .  A
O83        Ni102   1.941       .  S
O84          C86   1.269       .  A
O84        Ni102   1.883       .  S
Ni85         O88   1.907       .  S
Ni85         O90   1.923       .  S
C86          O96   1.287       .  A
C86        C1552   1.456       .  S
O87          C93   1.284       .  A
O87        Ni103   1.944       .  S
O88          C93   1.282       .  A
O90          C92   1.269       .  A
O91        Ni102   1.960       .  S
C92          O98   1.267       .  A
C93         C942   1.469   1_545  S
H94          O95   0.967       .  S
O95        Ni103   1.964       .  S
O95         Ni97   1.960       .  S
O95        Ni102   1.921       .  S
O96         Ni97   1.968       .  S
Ni97        O101   1.941       .  S
Ni97         O99   1.900       .  S
O98        Ni103   1.977       .  S
C100        O101   1.275       .  A
O105        C126   1.264       .  A
O105       Ni111   1.908       .  S
O106        C115   1.291       .  A
O106       Ni129   1.960       .  S
O107       Ni111   1.913       .  S
O107       Ni123   1.947       .  S
O107       Ni481   1.941       .  S
O107        H130   0.966       .  S
C108        O125   1.297       .  A
C108        O469   1.266       .  A
C108       C1216   1.451   1_545  S
O109        C115   1.276       .  A
O109       Ni128   1.925       .  S
O110        C112   1.282       .  A
O110       Ni128   1.949       .  S
Ni111       O114   1.907       .  S
Ni111       O116   1.897       .  S
C112        O474   1.264   1_554  A
O113        C119   1.280   1_554  A
O113       Ni129   1.927       .  S
O114        C471   1.261       .  A
C115        C152   1.519       .  S
O116        C118   1.275       .  A
O117        C460   1.266       .  A
O117       Ni128   1.876       .  S
C118        O476   1.281       .  A
C118       C1468   1.452   1_455  S
C119        O466   1.261       .  A
C119        C268   1.465   1_556  S
H120        O121   0.966       .  S
O121       Ni129   1.887       .  S
O121       Ni128   1.907       .  S
O121       Ni475   1.911   1_554  S
O122        C464   1.264       .  A
O122       Ni123   1.894       .  S
Ni123       O127   1.990       .  S
Ni123       O125   1.959       .  S
Ni123       O473   1.911       .  S
O124        C470   1.281   1_554  A
O124       Ni129   1.948       .  S
C126        O127   1.292       .  A
C126        C141   1.515       .  S
Ni129       O459   1.941   1_554  S
O131        C152   1.262       .  A
O131       Ni137   1.901       .  S
O132        C141   1.287       .  A
O132       Ni155   1.956       .  S
O133       Ni137   1.920       .  S
O133       Ni155   1.943       .  S
O133       Ni149   1.950       .  S
O133        H156   0.966       .  S
C134        O151   1.297       .  A
C134        O143   1.267       .  A
C134        C890   1.456   1_545  S
O135        C141   1.274       .  A
O135       Ni154   1.926       .  S
O136        C138   1.283       .  A
O136       Ni154   1.942       .  S
Ni137       O140   1.905       .  S
Ni137       O142   1.901       .  S
C138        O148   1.273       .  A
O139        C145   1.279       .  A
O139       Ni155   1.927       .  S
O140        C145   1.260       .  A
O142        C144   1.275       .  A
O143       Ni154   1.886       .  S
C144        O150   1.279       .  A
C144       C1494   1.456   1_455  S
C145        C294   1.464       .  S
H146        O147   0.966       .  S
O147       Ni155   1.890       .  S
O147       Ni149   1.917       .  S
O147       Ni154   1.906       .  S
O148       Ni149   1.917       .  S
Ni149       O153   2.000       .  S
Ni149       O151   1.956       .  S
O150       Ni155   1.948       .  S
C152        O153   1.295       .  A
O157        C178   1.249       .  A
O157       Ni163   1.870       .  S
O158        C167   1.287       .  A
O158       Ni181   1.953       .  S
O159       Ni163   1.924       .  S
O159       Ni175   1.954       .  S
O159       Ni533   1.986   1_554  S
O159        H182   0.966       .  S
C160        O177   1.289   1_556  A
C160        O521   1.270       .  A
C160       C1164   1.451   1_556  S
O161        C167   1.255       .  A
O161       Ni180   1.887       .  S
O162        C164   1.247       .  A
O162       Ni180   1.881       .  S
Ni163       O166   1.841       .  S
Ni163       O168   1.912       .  S
C164        O526   1.266       .  A
O165        C171   1.278       .  A
O165       Ni181   1.963       .  S
O166        C523   1.247   1_554  A
C167        C204   1.476       .  S
O168        C170   1.277       .  A
O169        C512   1.270       .  A
O169       Ni180   1.907       .  S
C170        O528   1.278   1_554  A
C170       C1982   1.454   1_455  S
C171        O518   1.247       .  A
C171        C627   1.480       .  S
H172        O173   0.966       .  S
O173       Ni181   1.904       .  S
O173       Ni180   1.905       .  S
O173       Ni527   1.957       .  S
O174        C516   1.266   1_554  A
O174       Ni175   1.984       .  S
Ni175       O179   1.998       .  S
Ni175       O177   1.920       .  S
Ni175       O525   1.957   1_554  S
O176        C522   1.278       .  A
O176       Ni181   1.933       .  S
C178        O179   1.292       .  A
C178        C193   1.504       .  S
Ni181       O511   1.986       .  S
O183        C204   1.246       .  A
O183       Ni189   1.860       .  S
O184        C193   1.291       .  A
O184       Ni207   1.951       .  S
O185       Ni189   1.913       .  S
O185       Ni207   1.982       .  S
O185       Ni201   1.959       .  S
O185        H208   0.966       .  S
C186        O203   1.293       .  A
C186        O195   1.268       .  A
C186        C838   1.456       .  S
O187        C193   1.273       .  A
O187       Ni206   1.924       .  S
O188        C190   1.274       .  A
O188       Ni206   1.936       .  S
Ni189       O192   1.826       .  S
Ni189       O194   1.902       .  S
C190        O200   1.265       .  A
O191        C197   1.276       .  A
O191       Ni207   1.967       .  S
O192        C197   1.243       .  A
O194        C196   1.277       .  A
O195       Ni206   1.895       .  S
C196        O202   1.285       .  A
C196       C1656   1.451   1_455  S
C197        C301   1.478       .  S
H198        O199   0.967       .  S
O199       Ni207   1.893       .  S
O199       Ni201   1.927       .  S
O199       Ni206   1.897       .  S
O200       Ni201   1.958       .  S
Ni201       O205   1.968       .  S
Ni201       O203   1.939       .  S
O202       Ni207   1.946       .  S
C204        O205   1.285       .  A
O209        C230   1.259       .  A
O209       Ni215   1.905       .  S
O210        C219   1.298       .  A
O210       Ni233   1.969       .  S
O211       Ni215   1.884       .  S
O211       Ni227   1.885       .  S
O211       Ni585   1.967       .  S
O211        H234   0.966       .  S
C212        O229   1.272       .  A
C212        O573   1.261       .  A
C212        C771   1.464       .  S
O213        C219   1.268       .  A
O213       Ni232   1.908       .  S
O214        C568   1.253   1_554  A
O214       Ni232   1.894       .  S
Ni215       O218   1.884       .  S
Ni215       O220   1.944       .  S
C216        O226   1.300       .  A
C216        O566   1.253       .  A
O217        C223   1.286       .  A
O217       Ni233   2.020       .  S
O218        C575   1.245       .  A
C219        C256   1.495       .  S
O220        C222   1.278       .  A
O221        C564   1.261       .  A
O221       Ni232   1.920   1_556  S
C222        O580   1.266       .  A
C222       C1930   1.454       .  S
C223        O570   1.245   1_554  A
C223        C626   1.500       .  S
H224        O225   0.966       .  S
O225       Ni233   1.929       .  S
O225       Ni232   1.875       .  S
O225       Ni579   1.962   1_554  S
O226       Ni227   2.049       .  S
Ni227       O231   1.976       .  S
Ni227       O229   1.959       .  S
Ni227       O577   1.962       .  S
O228        C574   1.266       .  A
O228       Ni233   1.895       .  S
C230        O231   1.298       .  A
C230        C245   1.497       .  S
Ni233       O563   1.967   1_554  S
O235        C256   1.261       .  A
O235       Ni241   1.908       .  S
O236        C245   1.303       .  A
O236       Ni259   1.983       .  S
O237       Ni241   1.884       .  S
O237       Ni259   1.977       .  S
O237       Ni253   1.890       .  S
O237        H260   0.966       .  S
C238        O255   1.273       .  A
C238        O247   1.258       .  A
C238        C797   1.469       .  S
O239        C245   1.262       .  A
O239       Ni258   1.892       .  S
O240        C242   1.249       .  A
O240       Ni258   1.894       .  S
Ni241       O244   1.885       .  S
Ni241       O246   1.939       .  S
C242        O252   1.291       .  A
O243        C249   1.283       .  A
O243       Ni259   2.013       .  S
O244        C249   1.246       .  A
O246        C248   1.278       .  A
O247       Ni258   1.904       .  S
C248        O254   1.270       .  A
C248       C1604   1.451       .  S
C249        C300   1.498       .  S
H250        O251   0.967       .  S
O251       Ni259   1.917       .  S
O251       Ni253   1.967       .  S
O251       Ni258   1.869       .  S
O252       Ni253   2.032       .  S
Ni253       O257   1.969       .  S
Ni253       O255   1.961       .  S
O254       Ni259   1.896       .  S
C256        O257   1.292       .  A
O261        C282   1.268       .  A
O261      Ni1675   1.934       .  S
O262        C271   1.259       .  A
O262       Ni285   1.921       .  S
O263       Ni267   1.896   1_455  S
O263       Ni637   1.874       .  S
O263      Ni1687   1.914   1_455  S
O263        H286   0.966       .  S
C264        O281   1.258       .  A
C264        O625   1.287       .  A
O265        C271   1.260       .  A
O265      Ni1692   1.917   1_455  S
O266        C268   1.256       .  A
O266      Ni1692   1.872   1_455  S
Ni267       O270   1.950   1_655  S
Ni267      O1669   1.934       .  S
Ni267      O1680   1.894       .  S
C268        O630   1.289   1_554  A
O269        C275   1.288   1_554  A
O269       Ni285   1.915       .  S
O270        C627   1.281       .  A
C271        C324   1.473   1_455  S
O272        C274   1.267       .  A
O272      Ni1675   1.894       .  S
O273        C616   1.287       .  A
O273       Ni284   1.987       .  S
C274        O632   1.271       .  A
C274        C575   1.500       .  S
C275        O622   1.281       .  A
C275        C523   1.480       .  S
H276        O277   0.964       .  S
O277       Ni284   1.916       .  S
O277      Ni1693   1.954       .  S
O277       Ni631   1.846   1_554  S
O278        C620   1.289       .  A
O278      Ni1687   1.975   1_455  S
Ni279       O283   1.853       .  S
Ni279       O281   1.888       .  S
Ni279      O1686   1.975       .  S
Ni279      O1671   1.914       .  S
Ni279       O629   1.846       .  S
O280        C626   1.271       .  A
O280      Ni1693   1.969       .  S
C282        O283   1.264       .  A
C282        C317   1.479       .  S
Ni284      O1673   1.917       .  S
Ni284      O1674   1.872       .  S
Ni285      O1688   1.969   1_455  S
Ni285       O615   1.874   1_554  S
Ni285      O1685   1.954   1_455  S
O287        C308   1.269       .  A
O287      Ni1701   1.938       .  S
O288        C297   1.260       .  A
O288      Ni1719   1.923       .  S
O289       Ni293   1.896   1_455  S
O289       Ni311   1.871       .  S
O289      Ni1713   1.910   1_455  S
O289        H312   0.966       .  S
C290        O307   1.257       .  A
C290        O299   1.288       .  A
O291        C297   1.260       .  A
O291       Ni310   1.920       .  S
O292        C294   1.255       .  A
O292      Ni1718   1.869       .  S
Ni293       O296   1.951   1_655  S
Ni293      O1695   1.938       .  S
Ni293      O1706   1.892       .  S
C294        O304   1.290       .  A
O295        C301   1.288       .  A
O295       Ni311   1.909       .  S
O296        C301   1.281       .  A
C297        C314   1.474       .  S
O298        C300   1.265       .  A
O298      Ni1701   1.892       .  S
O299       Ni310   1.990       .  S
C300        O306   1.272       .  A
H302        O303   0.964       .  S
O303       Ni305   1.845       .  S
O303       Ni310   1.913       .  S
O303      Ni1719   1.947       .  S
O304      Ni1713   1.979   1_455  S
Ni305       O309   1.851       .  S
Ni305       O307   1.884       .  S
Ni305      O1712   1.979       .  S
Ni305      O1697   1.910       .  S
O306      Ni1719   1.971       .  S
C308        O309   1.265       .  A
C308        C327   1.482       .  S
Ni310      O1700   1.869       .  S
Ni311      O1696   1.923       .  S
Ni311      O1714   1.971   1_455  S
Ni311      O1711   1.947   1_455  S
C313        C318   1.404       .  A
C313       C1722   1.433       .  A
C313       Br320   1.939       .  S
C314        C315   1.432       .  A
C314       C1721   1.433       .  A
C315        C316   1.408       .  A
C315       Br322   1.935       .  S
C316        C317   1.392       .  A
C316       Br321   1.921       .  S
C317       C1726   1.395       .  A
C318       C1725   1.395       .  A
C318       Br319   1.921       .  S
C323        C324   1.436       .  A
C323        C328   1.406       .  A
C323       Br330   1.940       .  S
C324       C1733   1.434       .  A
C325        C326   1.408       .  A
C325       C1732   1.434       .  A
C325       Br332   1.936       .  S
C326        C327   1.392       .  A
C326       Br331   1.920       .  S
C327       C1736   1.395       .  A
C328       C1735   1.395       .  A
C328       Br329   1.920       .  S
C333        C338   1.403       .  A
C333       C1038   1.433       .  A
C333       Br340   1.930       .  S
C334        C335   1.441       .  A
C334       C1037   1.433       .  A
C335        C336   1.393       .  A
C335       Br342   1.951       .  S
C336       C1041   1.402       .  A
C336       Br341   1.933       .  S
C337        C338   1.392       .  A
C337       C1040   1.402       .  A
C338       Br339   1.916       .  S
C343        C344   1.421       .  A
C343        C348   1.410   1_545  A
C343       Br350   1.924       .  S
C344       C1049   1.417   1_545  A
C345        C346   1.411       .  A
C345       C1048   1.417       .  A
C345       Br352   1.924       .  S
C346        C347   1.404       .  A
C346       Br351   1.915       .  S
C347       C1052   1.401       .  A
C348       C1051   1.401       .  A
C348       Br349   1.919   1_565  S
O353        C374   1.263       .  A
O353      Ni1063   1.922       .  S
O354        C363   1.257       .  A
O354       Ni377   1.798       .  S
O355       Ni359   1.908       .  S
O355      Ni1075   1.972   1_545  S
O355        H378   0.962       .  S
C356        O373   1.275   1_554  A
C356        C568   1.512   1_554  S
O357        C363   1.260       .  A
O357      Ni1080   1.911   1_545  S
O358        C360   1.258       .  A
O358      Ni1080   1.861   1_545  S
Ni359      O1057   1.922   1_545  S
Ni359       O362   1.948       .  S
Ni359      O1068   1.881   1_545  S
O361        C367   1.253       .  A
O361       Ni377   1.896       .  S
C363        C696   1.415       .  S
O364        C366   1.275       .  A
O364      Ni1063   1.881       .  S
O365       Ni376   1.938       .  S
C366        C516   1.482       .  S
C367        C464   1.468       .  S
H368        O369   0.966       .  S
O369      Ni1081   1.939       .  S
O369       Ni376   1.883       .  S
O370      Ni1075   1.986   1_545  S
Ni371      O1074   1.986       .  S
Ni371       O375   1.873       .  S
Ni371       O373   1.957       .  S
Ni371      O1059   1.972       .  S
O372      Ni1081   1.998       .  S
C374        O375   1.238       .  A
C374        C686   1.453       .  S
Ni376      O1061   1.911       .  S
Ni376      O1062   1.861       .  S
Ni377      O1076   1.998   1_545  S
Ni377      O1073   1.939   1_545  S
O379        C400   1.266       .  A
O379      Ni1089   1.922       .  S
O380        C389   1.298       .  A
O380       Ni403   1.874       .  S
O381       Ni385   1.855       .  S
O381       Ni403   1.842       .  S
O381      Ni1101   1.932   1_545  S
O381        H404   0.964       .  S
C382        O399   1.283       .  A
C382        O391   1.286       .  A
C382        C594   1.495       .  S
O383        C389   1.258       .  A
O383      Ni1106   1.900   1_545  S
O384        C386   1.246   1_565  A
O384      Ni1106   1.866       .  S
Ni385      O1083   1.922   1_545  S
Ni385       O388   1.936       .  S
Ni385      O1094   1.863   1_545  S
C386        O396   1.280       .  A
C386        C444   1.510       .  S
O387        C393   1.284       .  A
O387       Ni403   1.950       .  S
O388        C393   1.287       .  A
C389        C689   1.479       .  S
O390        C392   1.244       .  A
O390      Ni1089   1.863       .  S
O391       Ni402   1.924       .  S
C392        O398   1.290       .  A
C392        C542   1.491       .  S
C393        C490   1.482       .  S
H394        O395   0.965       .  S
O395      Ni1107   1.905       .  S
O395       Ni397   1.834       .  S
O395       Ni402   1.834       .  S
O396      Ni1101   2.013   1_545  S
Ni397      O1100   2.013       .  S
Ni397       O401   1.820       .  S
Ni397       O399   1.970       .  S
Ni397      O1085   1.932       .  S
O398      Ni1107   2.014       .  S
C400        O401   1.280       .  A
C400        C699   1.456       .  S
Ni402      O1087   1.900       .  S
Ni402      O1088   1.866       .  S
Ni403      O1102   2.014   1_545  S
Ni403      O1099   1.905   1_545  S
O405        C426   1.270       .  A
O405       Ni411   1.941       .  S
O406        C415   1.284       .  A
O406       Ni429   1.964       .  S
O407       Ni411   1.884       .  S
O407       Ni423   1.880       .  S
O407        H430   0.966       .  S
C408        O417   1.273   1_554  A
C408        C616   1.481       .  S
O409        C415   1.273       .  A
O409       Ni428   1.941       .  S
O410        C412   1.270       .  A
O410       Ni428   1.886       .  S
Ni411       O414   1.892       .  S
Ni411       O416   1.898       .  S
C412       C1878   1.452       .  S
O413        C419   1.284       .  A
O413       Ni429   1.948       .  S
C415        C452   1.518       .  S
O417       Ni428   1.954       .  S
C418        O424   1.268       .  A
C419       C1268   1.464   1_545  S
H420        O421   0.967       .  S
O421       Ni429   1.960       .  S
O421       Ni428   1.927       .  S
O422       Ni423   1.955       .  S
Ni423       O427   1.936       .  S
Ni423       O425   1.905       .  S
O424       Ni429   1.979       .  S
C426        O427   1.274       .  A
C426        C441   1.498       .  S
O431        C452   1.275       .  A
O431       Ni437   1.964       .  S
O432        C441   1.277       .  A
O432       Ni455   1.939       .  S
O433       Ni437   1.867       .  S
O433       Ni455   1.937       .  S
O433       Ni449   1.866       .  S
O433        H456   0.966       .  S
C434        O451   1.257       .  A
C434        O443   1.274       .  A
C434        C642   1.480       .  S
O435        C441   1.275       .  A
O435       Ni454   1.941       .  S
O436        C438   1.269       .  A
O436       Ni454   1.883       .  S
Ni437       O440   1.907       .  S
Ni437       O442   1.923       .  S
C438        O448   1.287       .  A
C438       C1904   1.456       .  S
O439        C445   1.284       .  A
O439       Ni455   1.944       .  S
O440        C445   1.282       .  A
O442        C444   1.269       .  A
O443       Ni454   1.960       .  S
C444        O450   1.267       .  A
C445       C1294   1.469   1_545  S
H446        O447   0.967       .  S
O447       Ni455   1.964       .  S
O447       Ni449   1.960       .  S
O447       Ni454   1.921       .  S
O448       Ni449   1.968       .  S
Ni449       O453   1.941       .  S
Ni449       O451   1.900       .  S
O450       Ni455   1.977       .  S
C452        O453   1.275       .  A
O457        C478   1.264       .  A
O457       Ni463   1.908       .  S
O458        C467   1.291       .  A
O458       Ni481   1.960       .  S
O459       Ni463   1.913       .  S
O459       Ni475   1.947       .  S
O459        H482   0.966       .  S
C460        O477   1.297   1_554  A
C460        C864   1.451   1_544  S
O461        C467   1.276       .  A
O461       Ni480   1.925       .  S
O462        C464   1.282       .  A
O462       Ni480   1.949       .  S
Ni463       O466   1.907       .  S
Ni463       O468   1.897       .  S
O465        C471   1.280       .  A
O465       Ni481   1.927       .  S
C467        C504   1.519       .  S
O468        C470   1.275       .  A
O469       Ni480   1.876       .  S
C470       C1820   1.452   1_455  S
C471        C620   1.465       .  S
H472        O473   0.966       .  S
O473       Ni481   1.887       .  S
O473       Ni480   1.907       .  S
O474       Ni475   1.894       .  S
Ni475       O479   1.990       .  S
Ni475       O477   1.959       .  S
O476       Ni481   1.948       .  S
C478        O479   1.292       .  A
C478        C493   1.515       .  S
O483        C504   1.262       .  A
O483       Ni489   1.901       .  S
O484        C493   1.287       .  A
O484       Ni507   1.956       .  S
O485       Ni489   1.920       .  S
O485       Ni507   1.943       .  S
O485       Ni501   1.950       .  S
O485        H508   0.966       .  S
C486        O503   1.297       .  A
C486        O495   1.267       .  A
C486       C1242   1.456   1_545  S
O487        C493   1.274       .  A
O487       Ni506   1.926       .  S
O488        C490   1.283       .  A
O488       Ni506   1.942       .  S
Ni489       O492   1.905       .  S
Ni489       O494   1.901       .  S
C490        O500   1.273       .  A
O491        C497   1.279       .  A
O491       Ni507   1.927       .  S
O492        C497   1.260       .  A
O494        C496   1.275       .  A
O495       Ni506   1.886       .  S
C496        O502   1.279       .  A
C496       C1846   1.456   1_455  S
C497        C646   1.464       .  S
H498        O499   0.966       .  S
O499       Ni507   1.890       .  S
O499       Ni501   1.917       .  S
O499       Ni506   1.905       .  S
O500       Ni501   1.917       .  S
Ni501       O505   2.000       .  S
Ni501       O503   1.956       .  S
O502       Ni507   1.948       .  S
C504        O505   1.295       .  A
O509        C530   1.249       .  A
O509       Ni515   1.870       .  S
O510        C519   1.287       .  A
O510       Ni533   1.953       .  S
O511       Ni515   1.924       .  S
O511       Ni527   1.954       .  S
O511        H534   0.966       .  S
C512        O529   1.289       .  A
C512        C812   1.451       .  S
O513        C519   1.255       .  A
O513       Ni532   1.887       .  S
O514        C516   1.247       .  A
O514       Ni532   1.881       .  S
Ni515       O518   1.841       .  S
Ni515       O520   1.912       .  S
O517        C523   1.278       .  A
O517       Ni533   1.963       .  S
C519        C556   1.476       .  S
O520        C522   1.277       .  A
O521       Ni532   1.907       .  S
C522       C1630   1.454   1_455  S
H524        O525   0.966       .  S
O525       Ni533   1.904       .  S
O525       Ni532   1.905       .  S
O526       Ni527   1.984       .  S
Ni527       O531   1.998       .  S
Ni527       O529   1.920       .  S
O528       Ni533   1.933       .  S
C530        O531   1.292       .  A
C530        C545   1.504       .  S
O535        C556   1.246       .  A
O535       Ni541   1.860       .  S
O536        C545   1.291       .  A
O536       Ni559   1.951       .  S
O537       Ni541   1.913       .  S
O537       Ni559   1.982       .  S
O537       Ni553   1.959       .  S
O537        H560   0.966       .  S
C538        O555   1.293       .  A
C538        O547   1.268       .  A
C538       C1190   1.456       .  S
O539        C545   1.273       .  A
O539       Ni558   1.924       .  S
O540        C542   1.274       .  A
O540       Ni558   1.936       .  S
Ni541       O544   1.826       .  S
Ni541       O546   1.902       .  S
C542        O552   1.265       .  A
O543        C549   1.276       .  A
O543       Ni559   1.967       .  S
O544        C549   1.243       .  A
O546        C548   1.277       .  A
O547       Ni558   1.895       .  S
C548        O554   1.285       .  A
C548       C2008   1.451   1_455  S
C549        C653   1.478       .  S
H550        O551   0.967       .  S
O551       Ni559   1.893       .  S
O551       Ni553   1.927       .  S
O551       Ni558   1.897       .  S
O552       Ni553   1.958       .  S
Ni553       O557   1.968       .  S
Ni553       O555   1.939       .  S
O554       Ni559   1.946       .  S
C556        O557   1.285       .  A
O561        C582   1.259       .  A
O561       Ni567   1.905       .  S
O562        C571   1.298       .  A
O562       Ni585   1.969       .  S
O563       Ni567   1.884       .  S
O563       Ni579   1.885       .  S
O563        H586   0.966       .  S
C564        O581   1.272       .  A
C564       C1123   1.464       .  S
O565        C571   1.268       .  A
O565       Ni584   1.908       .  S
O566       Ni584   1.894       .  S
Ni567       O570   1.884       .  S
Ni567       O572   1.944       .  S
C568        O578   1.300       .  A
O569        C575   1.286       .  A
O569       Ni585   2.020       .  S
C571        C608   1.495       .  S
O572        C574   1.278   1_556  A
O573       Ni584   1.920       .  S
C574       C1578   1.454       .  S
H576        O577   0.966       .  S
O577       Ni585   1.929       .  S
O577       Ni584   1.875       .  S
O578       Ni579   2.049       .  S
Ni579       O583   1.976       .  S
Ni579       O581   1.959       .  S
O580       Ni585   1.895       .  S
C582        O583   1.298       .  A
C582        C597   1.497       .  S
O587        C608   1.261       .  A
O587       Ni593   1.908       .  S
O588        C597   1.303       .  A
O588       Ni611   1.983       .  S
O589       Ni593   1.884       .  S
O589       Ni611   1.977       .  S
O589       Ni605   1.890       .  S
O589        H612   0.966       .  S
C590        O607   1.273       .  A
C590        O599   1.258       .  A
C590       C1149   1.469       .  S
O591        C597   1.262       .  A
O591       Ni610   1.892       .  S
O592        C594   1.249       .  A
O592       Ni610   1.894       .  S
Ni593       O596   1.885       .  S
Ni593       O598   1.939       .  S
C594        O604   1.291       .  A
O595        C601   1.283       .  A
O595       Ni611   2.013       .  S
O596        C601   1.246       .  A
O598        C600   1.278       .  A
O599       Ni610   1.904       .  S
C600        O606   1.270       .  A
C600       C1956   1.451       .  S
C601        C652   1.498       .  S
H602        O603   0.967       .  S
O603       Ni611   1.917       .  S
O603       Ni605   1.967       .  S
O603       Ni610   1.869       .  S
O604       Ni605   2.032       .  S
Ni605       O609   1.969       .  S
Ni605       O607   1.961       .  S
O606       Ni611   1.896       .  S
C608        O609   1.292       .  A
O613        C634   1.268       .  A
O613      Ni2027   1.934       .  S
O614        C623   1.259       .  A
O614       Ni637   1.921       .  S
O615       Ni619   1.896   1_455  S
O615      Ni2039   1.914   1_455  S
O615        H638   0.966       .  S
C616        O633   1.258       .  A
O617        C623   1.260       .  A
O617      Ni2044   1.917   1_455  S
O618        C620   1.256       .  A
O618      Ni2044   1.872   1_455  S
Ni619      O2021   1.934       .  S
Ni619       O622   1.950   1_655  S
Ni619      O2032   1.894       .  S
O621        C627   1.288       .  A
O621       Ni637   1.915       .  S
C623        C676   1.473   1_455  S
O624        C626   1.267   1_556  A
O624      Ni2027   1.894       .  S
O625       Ni636   1.987       .  S
H628        O629   0.964       .  S
O629      Ni2045   1.954       .  S
O629       Ni636   1.916       .  S
O630      Ni2039   1.975   1_455  S
Ni631      O2038   1.975       .  S
Ni631       O635   1.853       .  S
Ni631       O633   1.888   1_556  S
Ni631      O2023   1.914       .  S
O632      Ni2045   1.969       .  S
C634        O635   1.264       .  A
C634        C669   1.479       .  S
Ni636      O2025   1.917       .  S
Ni636      O2026   1.872       .  S
Ni637      O2040   1.969   1_455  S
Ni637      O2037   1.954   1_455  S
O639        C660   1.269       .  A
O639      Ni2053   1.938       .  S
O640        C649   1.260       .  A
O640      Ni2071   1.923       .  S
O641       Ni645   1.896   1_455  S
O641       Ni663   1.871       .  S
O641      Ni2065   1.910   1_455  S
O641        H664   0.966       .  S
C642        O659   1.257       .  A
C642        O651   1.288       .  A
O643        C649   1.260       .  A
O643       Ni662   1.920       .  S
O644        C646   1.255       .  A
O644      Ni2070   1.869       .  S
Ni645      O2047   1.938       .  S
Ni645       O648   1.951   1_655  S
Ni645      O2058   1.892       .  S
C646        O656   1.290       .  A
O647        C653   1.288       .  A
O647       Ni663   1.909       .  S
O648        C653   1.281       .  A
C649        C666   1.474       .  S
O650        C652   1.265       .  A
O650      Ni2053   1.892       .  S
O651       Ni662   1.990       .  S
C652        O658   1.272       .  A
H654        O655   0.964       .  S
O655      Ni2071   1.947       .  S
O655       Ni657   1.845       .  S
O655       Ni662   1.913       .  S
O656      Ni2065   1.979   1_455  S
Ni657      O2064   1.979       .  S
Ni657       O661   1.851       .  S
Ni657       O659   1.884       .  S
Ni657      O2049   1.910       .  S
O658      Ni2071   1.971       .  S
C660        O661   1.265       .  A
C660        C679   1.482       .  S
Ni662      O2052   1.869       .  S
Ni663      O2048   1.923       .  S
Ni663      O2066   1.971   1_455  S
Ni663      O2063   1.947   1_455  S
C665       C2074   1.433       .  A
C665        C670   1.404       .  A
C665       Br672   1.939       .  S
C666       C2073   1.433       .  A
C666        C667   1.432       .  A
C667        C668   1.408       .  A
C667       Br674   1.935       .  S
C668        C669   1.392       .  A
C668       Br673   1.921       .  S
C669       C2078   1.395       .  A
C670       C2077   1.395       .  A
C670       Br671   1.921       .  S
C675        C676   1.436       .  A
C675        C680   1.406       .  A
C675       Br682   1.940       .  S
C676       C2085   1.434       .  A
C677       C2084   1.434       .  A
C677        C678   1.408       .  A
C677       Br684   1.936       .  S
C678        C679   1.392       .  A
C678       Br683   1.920       .  S
C679       C2088   1.395       .  A
C680       C2087   1.395       .  A
C680       Br681   1.920       .  S
C685       C1390   1.433       .  A
C685        C690   1.403       .  A
C685       Br692   1.930       .  S
C686       C1389   1.433       .  A
C686        C687   1.441       .  A
C687        C688   1.393       .  A
C687       Br694   1.951       .  S
C688       C1393   1.402       .  A
C688       Br693   1.933       .  S
C689       C1392   1.402       .  A
C689        C690   1.392       .  A
C690       Br691   1.916       .  S
C695        C696   1.421       .  A
C695        C700   1.410   1_545  A
C695       Br702   1.924       .  S
C696       C1401   1.417   1_545  A
C697       C1400   1.417       .  A
C697        C698   1.411       .  A
C697       Br704   1.924       .  S
C698        C699   1.404       .  A
C698       Br703   1.915       .  S
C699       C1404   1.401       .  A
C700       C1403   1.401       .  A
C700       Br701   1.919   1_565  S
O705        C726   1.263       .  A
O706        C715   1.257       .  A
O706       Ni729   1.798       .  S
O707       Ni711   1.908       .  S
O707      Ni1081   1.823       .  S
O707        H730   0.962       .  S
C708        O725   1.275       .  A
C708       O1069   1.284       .  A
C708        C920   1.512       .  S
O709        C715   1.260       .  A
O710        C712   1.258   1_554  A
Ni711       O714   1.948       .  S
C712       O1074   1.281       .  A
C712       C1122   1.491       .  S
O713        C719   1.253   1_554  A
O713       Ni729   1.896       .  S
O714       C1071   1.274       .  A
C715       C1048   1.415       .  S
O716        C718   1.275       .  A
O717       C1060   1.284       .  A
O717       Ni728   1.938       .  S
C718       O1076   1.294       .  A
C718        C868   1.482       .  S
C719       O1066   1.274       .  A
C719        C816   1.468   1_556  S
H720        O721   0.966       .  S
O721      Ni1075   1.850   1_554  S
O721       Ni728   1.883       .  S
O722       C1064   1.281       .  A
Ni723       O727   1.873       .  S
Ni723       O725   1.957       .  S
Ni723      O1073   1.850       .  S
O724       C1070   1.294   1_554  A
C726        O727   1.238       .  A
C726       C1038   1.453   1_565  S
Ni729      O1059   1.823   1_554  S
O731        C752   1.266       .  A
O732        C741   1.298       .  A
O732       Ni755   1.874       .  S
O733       Ni737   1.855       .  S
O733       Ni755   1.842       .  S
O733        H756   0.964       .  S
C734        O751   1.283       .  A
C734        O743   1.286       .  A
C734        C946   1.495       .  S
O735        C741   1.258       .  A
O736        C738   1.246       .  A
Ni737       O740   1.936       .  S
C738        O748   1.280       .  A
C738        C796   1.510       .  S
O739        C745   1.284       .  A
O739       Ni755   1.950       .  S
O740        C745   1.287       .  A
C741       C1041   1.479       .  S
O742        C744   1.244       .  A
O743       Ni754   1.924       .  S
C744        O750   1.290       .  A
C744        C894   1.491       .  S
C745        C842   1.482       .  S
H746        O747   0.965       .  S
O747       Ni749   1.834       .  S
O747       Ni754   1.834       .  S
Ni749       O753   1.820       .  S
Ni749       O751   1.970       .  S
C752        O753   1.280       .  A
C752       C1051   1.456       .  S
O757        C778   1.270       .  A
O757       Ni763   1.941       .  S
O758        C767   1.284       .  A
O758       Ni781   1.964       .  S
O759       Ni763   1.884       .  S
O759      Ni1133   1.964   1_554  S
O759       Ni775   1.880       .  S
O759        H782   0.966       .  S
C760       O1129   1.259       .  A
C760        O769   1.273       .  A
C760        C968   1.481       .  S
O761        C767   1.273       .  A
O761       Ni780   1.941       .  S
O762        C764   1.270       .  A
O762       Ni780   1.886       .  S
Ni763       O766   1.892       .  S
Ni763       O768   1.898       .  S
C764       O1126   1.283       .  A
C764       C2230   1.452       .  S
O765        C771   1.284       .  A
O765       Ni781   1.948       .  S
O766       C1123   1.274   1_554  A
C767        C804   1.518       .  S
O768       C1122   1.261   1_554  A
O769       Ni780   1.954       .  S
C770       O1120   1.261       .  A
C770        O776   1.268       .  A
C770       C1064   1.491       .  S
C771       O1118   1.274       .  A
H772        O773   0.967       .  S
O773       Ni781   1.960       .  S
O773      Ni1127   1.962       .  S
O773       Ni780   1.927       .  S
O774       C1116   1.283   1_554  A
O774       Ni775   1.955       .  S
Ni775       O779   1.936       .  S
Ni775       O777   1.905       .  S
Ni775      O1125   1.962   1_554  S
O776       Ni781   1.979       .  S
O777       C1112   1.259       .  A
C778        O779   1.274       .  A
C778        C793   1.498       .  S
Ni781      O1111   1.964       .  S
O783        C804   1.275       .  A
O783       Ni789   1.964       .  S
O784        C793   1.277       .  A
O784       Ni807   1.939       .  S
O785       Ni789   1.867       .  S
O785       Ni807   1.937       .  S
O785       Ni801   1.866       .  S
O785        H808   0.966       .  S
C786        O803   1.257       .  A
C786        O795   1.274       .  A
C786        C994   1.480       .  S
O787        C793   1.275       .  A
O787       Ni806   1.941       .  S
O788        C790   1.269       .  A
O788       Ni806   1.883       .  S
Ni789       O792   1.907       .  S
Ni789       O794   1.923       .  S
C790        O800   1.287       .  A
C790       C2256   1.456       .  S
O791        C797   1.284       .  A
O791       Ni807   1.944       .  S
O792        C797   1.282       .  A
O794        C796   1.269       .  A
O795       Ni806   1.960       .  S
C796        O802   1.267       .  A
H798        O799   0.967       .  S
O799       Ni807   1.964       .  S
O799       Ni801   1.960       .  S
O799       Ni806   1.921       .  S
O800       Ni801   1.968       .  S
Ni801       O805   1.941       .  S
Ni801       O803   1.900       .  S
O802       Ni807   1.977       .  S
C804        O805   1.275       .  A
O809        C830   1.264       .  A
O809       Ni815   1.908       .  S
O810        C819   1.291       .  A
O810       Ni833   1.960       .  S
O811       Ni815   1.913       .  S
O811      Ni1185   1.941       .  S
O811       Ni827   1.947       .  S
O811        H834   0.966       .  S
C812        O829   1.297       .  A
C812       O1173   1.266       .  A
O813        C819   1.276       .  A
O813       Ni832   1.925       .  S
O814        C816   1.282       .  A
O814       Ni832   1.949       .  S
Ni815       O818   1.907       .  S
Ni815       O820   1.897       .  S
C816       O1178   1.264   1_554  A
O817        C823   1.280   1_554  A
O817       Ni833   1.927       .  S
O818       C1175   1.261       .  A
C819        C856   1.519       .  S
O820        C822   1.275       .  A
O821       C1164   1.266       .  A
O821       Ni832   1.876       .  S
C822       O1180   1.281       .  A
C822       C2172   1.452   1_455  S
C823       O1170   1.261       .  A
C823        C972   1.465   1_556  S
H824        O825   0.966       .  S
O825       Ni833   1.887       .  S
O825      Ni1179   1.911   1_554  S
O825       Ni832   1.907       .  S
O826       C1168   1.264       .  A
O826       Ni827   1.894       .  S
Ni827       O831   1.990       .  S
Ni827       O829   1.959       .  S
Ni827      O1177   1.911       .  S
O828       C1174   1.281   1_554  A
O828       Ni833   1.948       .  S
C830        O831   1.292       .  A
C830        C845   1.515       .  S
Ni833      O1163   1.941   1_554  S
O835        C856   1.262       .  A
O835       Ni841   1.901       .  S
O836        C845   1.287       .  A
O836       Ni859   1.956       .  S
O837       Ni841   1.920       .  S
O837       Ni859   1.943       .  S
O837       Ni853   1.950       .  S
O837        H860   0.966       .  S
C838        O855   1.297       .  A
C838        O847   1.267       .  A
O839        C845   1.274       .  A
O839       Ni858   1.926       .  S
O840        C842   1.283       .  A
O840       Ni858   1.942       .  S
Ni841       O844   1.905       .  S
Ni841       O846   1.901       .  S
C842        O852   1.273       .  A
O843        C849   1.279       .  A
O843       Ni859   1.927       .  S
O844        C849   1.260       .  A
O846        C848   1.275       .  A
O847       Ni858   1.886       .  S
C848        O854   1.279       .  A
C848       C2198   1.456   1_455  S
C849        C998   1.464       .  S
H850        O851   0.966       .  S
O851       Ni859   1.890       .  S
O851       Ni853   1.917       .  S
O851       Ni858   1.906       .  S
O852       Ni853   1.917       .  S
Ni853       O857   2.000       .  S
Ni853       O855   1.956       .  S
O854       Ni859   1.948       .  S
C856        O857   1.295       .  A
O861        C882   1.249       .  A
O861       Ni867   1.870       .  S
O862        C871   1.287       .  A
O862       Ni885   1.953       .  S
O863       Ni867   1.924       .  S
O863      Ni1237   1.986   1_554  S
O863       Ni879   1.954       .  S
O863        H886   0.966       .  S
C864        O881   1.289   1_556  A
C864       O1225   1.270       .  A
O865        C871   1.255       .  A
O865       Ni884   1.887       .  S
O866        C868   1.247       .  A
O866       Ni884   1.881       .  S
Ni867       O870   1.841       .  S
Ni867       O872   1.912       .  S
C868       O1230   1.266       .  A
O869        C875   1.278       .  A
O869       Ni885   1.963       .  S
O870       C1227   1.247   1_554  A
C871        C908   1.476       .  S
O872        C874   1.277       .  A
O873       C1216   1.270       .  A
O873       Ni884   1.907       .  S
C874       O1232   1.278   1_554  A
C874       C2686   1.454   1_455  S
C875       O1222   1.247       .  A
C875       C1331   1.480       .  S
H876        O877   0.966       .  S
O877       Ni885   1.904       .  S
O877      Ni1231   1.957       .  S
O877       Ni884   1.905       .  S
O878       C1220   1.266   1_554  A
O878       Ni879   1.984       .  S
Ni879       O883   1.998       .  S
Ni879       O881   1.920       .  S
Ni879      O1229   1.957   1_554  S
O880       C1226   1.278       .  A
O880       Ni885   1.933       .  S
C882        O883   1.292       .  A
C882        C897   1.504       .  S
Ni885      O1215   1.986       .  S
O887        C908   1.246       .  A
O887       Ni893   1.860       .  S
O888        C897   1.291       .  A
O888       Ni911   1.951       .  S
O889       Ni893   1.913       .  S
O889       Ni911   1.982       .  S
O889       Ni905   1.959       .  S
O889        H912   0.966       .  S
C890        O907   1.293       .  A
C890        O899   1.268       .  A
O891        C897   1.273       .  A
O891       Ni910   1.924       .  S
O892        C894   1.274       .  A
O892       Ni910   1.936       .  S
Ni893       O896   1.826       .  S
Ni893       O898   1.902       .  S
C894        O904   1.265       .  A
O895        C901   1.276       .  A
O895       Ni911   1.967       .  S
O896        C901   1.243       .  A
O898        C900   1.277       .  A
O899       Ni910   1.895       .  S
C900        O906   1.285       .  A
C900       C2360   1.451   1_455  S
C901       C1005   1.478       .  S
H902        O903   0.967       .  S
O903       Ni911   1.893       .  S
O903       Ni905   1.927       .  S
O903       Ni910   1.897       .  S
O904       Ni905   1.958       .  S
Ni905       O909   1.968       .  S
Ni905       O907   1.939       .  S
O906       Ni911   1.946       .  S
C908        O909   1.285       .  A
O913        C934   1.259       .  A
O913       Ni919   1.905       .  S
O914        C923   1.298       .  A
O914       Ni937   1.969       .  S
O915       Ni919   1.884       .  S
O915      Ni1289   1.967       .  S
O915       Ni931   1.885       .  S
O915        H938   0.966       .  S
C916        O933   1.272       .  A
C916       O1277   1.261       .  A
O917        C923   1.268       .  A
O917       Ni936   1.908       .  S
O918       C1272   1.253   1_554  A
O918       Ni936   1.894       .  S
Ni919       O922   1.884       .  S
Ni919       O924   1.944       .  S
C920       O1270   1.253       .  A
C920        O930   1.300       .  A
O921        C927   1.286       .  A
O921       Ni937   2.020       .  S
O922       C1279   1.245       .  A
C923        C960   1.495       .  S
O924        C926   1.278       .  A
O925       C1268   1.261       .  A
O925       Ni936   1.920   1_556  S
C926       O1284   1.266       .  A
C926       C2634   1.454       .  S
C927       O1274   1.245   1_554  A
C927       C1330   1.500       .  S
H928        O929   0.966       .  S
O929       Ni937   1.929       .  S
O929      Ni1283   1.962   1_554  S
O929       Ni936   1.875       .  S
O930       Ni931   2.049       .  S
Ni931       O935   1.976       .  S
Ni931       O933   1.959       .  S
Ni931      O1281   1.962       .  S
O932       C1278   1.266       .  A
O932       Ni937   1.895       .  S
C934        O935   1.298       .  A
C934        C949   1.497       .  S
Ni937      O1267   1.967   1_554  S
O939        C960   1.261       .  A
O939       Ni945   1.908       .  S
O940        C949   1.303       .  A
O940       Ni963   1.983       .  S
O941       Ni945   1.884       .  S
O941       Ni963   1.977       .  S
O941       Ni957   1.890       .  S
O941        H964   0.966       .  S
C942        O959   1.273       .  A
C942        O951   1.258       .  A
O943        C949   1.262       .  A
O943       Ni962   1.892       .  S
O944        C946   1.249       .  A
O944       Ni962   1.894       .  S
Ni945       O948   1.885       .  S
Ni945       O950   1.939       .  S
C946        O956   1.291       .  A
O947        C953   1.283       .  A
O947       Ni963   2.013       .  S
O948        C953   1.246       .  A
O950        C952   1.278       .  A
O951       Ni962   1.904       .  S
C952        O958   1.270       .  A
C952       C2308   1.451       .  S
C953       C1004   1.498       .  S
H954        O955   0.967       .  S
O955       Ni963   1.917       .  S
O955       Ni957   1.967       .  S
O955       Ni962   1.869       .  S
O956       Ni957   2.032       .  S
Ni957       O961   1.969       .  S
Ni957       O959   1.961       .  S
O958       Ni963   1.896       .  S
C960        O961   1.292       .  A
O965        C986   1.268       .  A
O965      Ni2379   1.934       .  S
O966        C975   1.259       .  A
O966       Ni989   1.921       .  S
O967       Ni971   1.896   1_455  S
O967      Ni1341   1.874       .  S
O967      Ni2391   1.914   1_455  S
O967        H990   0.966       .  S
C968        O985   1.258       .  A
C968       O1329   1.287       .  A
O969        C975   1.260       .  A
O969      Ni2396   1.917   1_455  S
O970        C972   1.256       .  A
O970      Ni2396   1.872   1_455  S
Ni971      O2373   1.934       .  S
Ni971       O974   1.950   1_655  S
Ni971      O2384   1.894       .  S
C972       O1334   1.289   1_554  A
O973        C979   1.288   1_554  A
O973       Ni989   1.915       .  S
O974       C1331   1.281       .  A
C975       C1028   1.473   1_455  S
O976        C978   1.267       .  A
O976      Ni2379   1.894       .  S
O977       C1320   1.287       .  A
O977       Ni988   1.987       .  S
C978       O1336   1.271       .  A
C978       C1279   1.500       .  S
C979       O1326   1.281       .  A
C979       C1227   1.480       .  S
H980        O981   0.964       .  S
O981      Ni2397   1.954       .  S
O981      Ni1335   1.846   1_554  S
O981       Ni988   1.916       .  S
O982       C1324   1.289       .  A
O982      Ni2391   1.975   1_455  S
Ni983      O2390   1.975       .  S
Ni983       O987   1.853       .  S
Ni983       O985   1.888       .  S
Ni983      O2375   1.914       .  S
Ni983      O1333   1.846       .  S
O984       C1330   1.271       .  A
O984      Ni2397   1.969       .  S
C986        O987   1.264       .  A
C986       C1021   1.479       .  S
Ni988      O2377   1.917       .  S
Ni988      O2378   1.872       .  S
Ni989      O2392   1.969   1_455  S
Ni989      O1319   1.874   1_554  S
Ni989      O2389   1.954   1_455  S
O991       C1012   1.269       .  A
O991      Ni2405   1.938       .  S
O992       C1001   1.260       .  A
O992      Ni2423   1.923       .  S
O993       Ni997   1.896   1_455  S
O993      Ni1015   1.871       .  S
O993      Ni2417   1.910   1_455  S
O993       H1016   0.966       .  S
C994       O1011   1.257       .  A
C994       O1003   1.288       .  A
O995       C1001   1.260       .  A
O995      Ni1014   1.920       .  S
O996        C998   1.255       .  A
O996      Ni2422   1.869       .  S
Ni997      O2399   1.938       .  S
Ni997      O1000   1.951   1_655  S
Ni997      O2410   1.892       .  S
C998       O1008   1.290       .  A
O999       C1005   1.288       .  A
O999      Ni1015   1.909       .  S
O1000      C1005   1.281       .  A
C1001      C1018   1.474       .  S
O1002      C1004   1.265       .  A
O1002     Ni2405   1.892       .  S
O1003     Ni1014   1.990       .  S
C1004      O1010   1.272       .  A
H1006      O1007   0.964       .  S
O1007     Ni2423   1.947       .  S
O1007     Ni1009   1.845       .  S
O1007     Ni1014   1.913       .  S
O1008     Ni2417   1.979   1_455  S
Ni1009     O2416   1.979       .  S
Ni1009     O1013   1.851       .  S
Ni1009     O1011   1.884       .  S
Ni1009     O2401   1.910       .  S
O1010     Ni2423   1.971       .  S
C1012      O1013   1.265       .  A
C1012      C1031   1.482       .  S
Ni1014     O2404   1.869       .  S
Ni1015     O2400   1.923       .  S
Ni1015     O2418   1.971   1_455  S
Ni1015     O2415   1.947   1_455  S
C1017      C2426   1.433       .  A
C1017      C1022   1.404       .  A
C1017     Br1024   1.939       .  S
C1018      C2425   1.433       .  A
C1018      C1019   1.432       .  A
C1019      C1020   1.408       .  A
C1019     Br1026   1.935       .  S
C1020      C1021   1.392       .  A
C1020     Br1025   1.921       .  S
C1021      C2430   1.395       .  A
C1022      C2429   1.395       .  A
C1022     Br1023   1.921       .  S
C1027      C1028   1.436       .  A
C1027      C1032   1.406       .  A
C1027     Br1034   1.940       .  S
C1028      C2437   1.434       .  A
C1029      C2436   1.434       .  A
C1029      C1030   1.408       .  A
C1029     Br1036   1.936       .  S
C1030      C1031   1.392       .  A
C1030     Br1035   1.920       .  S
C1031      C2440   1.395       .  A
C1032      C2439   1.395       .  A
C1032     Br1033   1.920       .  S
C1037      C1042   1.403       .  A
C1037     Br1044   1.930       .  S
C1038      C1039   1.441       .  A
C1039      C1040   1.393       .  A
C1039     Br1046   1.951   1_545  S
C1040     Br1045   1.933       .  S
C1041      C1042   1.392       .  A
C1042     Br1043   1.916       .  S
C1047      C1048   1.421       .  A
C1047      C1052   1.410       .  A
C1047     Br1054   1.924       .  S
C1049      C1050   1.411       .  A
C1049     Br1056   1.924       .  S
C1050      C1051   1.404       .  A
C1050     Br1055   1.915       .  S
C1052     Br1053   1.919       .  S
O1057      C1078   1.263       .  A
O1058      C1067   1.257       .  A
O1058     Ni1081   1.798       .  S
O1059     Ni1063   1.908       .  S
O1059      H1082   0.962       .  S
C1060      O1077   1.275   1_554  A
C1060      C1272   1.512   1_554  S
O1061      C1067   1.260       .  A
O1062      C1064   1.258       .  A
Ni1063     O1066   1.948       .  S
O1065      C1071   1.253       .  A
O1065     Ni1081   1.896       .  S
C1067      C1400   1.415       .  S
O1068      C1070   1.275       .  A
O1069     Ni1080   1.938       .  S
C1070      C1220   1.482       .  S
C1071      C1168   1.468       .  S
H1072      O1073   0.966       .  S
O1073     Ni1080   1.883       .  S
Ni1075     O1079   1.873       .  S
Ni1075     O1077   1.957       .  S
C1078      O1079   1.238       .  A
C1078      C1390   1.453   1_565  S
O1083      C1104   1.266       .  A
O1084      C1093   1.298       .  A
O1084     Ni1107   1.874       .  S
O1085     Ni1089   1.855       .  S
O1085     Ni1107   1.842       .  S
O1085      H1108   0.964       .  S
C1086      O1103   1.283       .  A
C1086      O1095   1.286       .  A
C1086      C1298   1.495       .  S
O1087      C1093   1.258       .  A
O1088      C1090   1.246       .  A
Ni1089     O1092   1.936       .  S
C1090      O1100   1.280       .  A
C1090      C1148   1.510       .  S
O1091      C1097   1.284       .  A
O1091     Ni1107   1.950       .  S
O1092      C1097   1.287       .  A
C1093      C1393   1.479       .  S
O1094      C1096   1.244       .  A
O1095     Ni1106   1.924       .  S
C1096      O1102   1.290       .  A
C1096      C1246   1.491       .  S
C1097      C1194   1.482       .  S
H1098      O1099   0.965       .  S
O1099     Ni1101   1.834       .  S
O1099     Ni1106   1.834       .  S
Ni1101     O1105   1.820       .  S
Ni1101     O1103   1.970       .  S
C1104      O1105   1.280       .  A
C1104      C1403   1.456       .  S
O1109      C1130   1.270       .  A
O1109     Ni1115   1.941       .  S
O1110      C1119   1.284       .  A
O1110     Ni1133   1.964       .  S
O1111     Ni1115   1.884       .  S
O1111     Ni1127   1.880       .  S
O1111      H1134   0.966       .  S
C1112      O1121   1.273   1_554  A
C1112      C1320   1.481       .  S
O1113      C1119   1.273       .  A
O1113     Ni1132   1.941       .  S
O1114      C1116   1.270       .  A
O1114     Ni1132   1.886       .  S
Ni1115     O1118   1.892       .  S
Ni1115     O1120   1.898       .  S
C1116      C2582   1.452       .  S
O1117      C1123   1.284       .  A
O1117     Ni1133   1.948       .  S
C1119      C1156   1.518       .  S
O1121     Ni1132   1.954       .  S
C1122      O1128   1.268       .  A
H1124      O1125   0.967       .  S
O1125     Ni1133   1.960       .  S
O1125     Ni1132   1.927       .  S
O1126     Ni1127   1.955       .  S
Ni1127     O1131   1.936       .  S
Ni1127     O1129   1.905       .  S
O1128     Ni1133   1.979       .  S
C1130      O1131   1.274       .  A
C1130      C1145   1.498       .  S
O1135      C1156   1.275       .  A
O1135     Ni1141   1.964       .  S
O1136      C1145   1.277       .  A
O1136     Ni1159   1.939       .  S
O1137     Ni1141   1.867       .  S
O1137     Ni1159   1.937       .  S
O1137     Ni1153   1.866       .  S
O1137      H1160   0.966       .  S
C1138      O1155   1.257       .  A
C1138      O1147   1.274       .  A
C1138      C1346   1.480       .  S
O1139      C1145   1.275       .  A
O1139     Ni1158   1.941       .  S
O1140      C1142   1.269       .  A
O1140     Ni1158   1.883       .  S
Ni1141     O1144   1.907       .  S
Ni1141     O1146   1.923       .  S
C1142      O1152   1.287       .  A
C1142      C2608   1.456       .  S
O1143      C1149   1.284       .  A
O1143     Ni1159   1.944       .  S
O1144      C1149   1.282       .  A
O1146      C1148   1.269       .  A
O1147     Ni1158   1.960       .  S
C1148      O1154   1.267       .  A
H1150      O1151   0.967       .  S
O1151     Ni1159   1.964       .  S
O1151     Ni1153   1.960       .  S
O1151     Ni1158   1.921       .  S
O1152     Ni1153   1.968       .  S
Ni1153     O1157   1.941       .  S
Ni1153     O1155   1.900       .  S
O1154     Ni1159   1.977       .  S
C1156      O1157   1.275       .  A
O1161      C1182   1.264       .  A
O1161     Ni1167   1.908       .  S
O1162      C1171   1.291       .  A
O1162     Ni1185   1.960       .  S
O1163     Ni1167   1.913       .  S
O1163     Ni1179   1.947       .  S
O1163      H1186   0.966       .  S
C1164      O1181   1.297   1_554  A
O1165      C1171   1.276       .  A
O1165     Ni1184   1.925       .  S
O1166      C1168   1.282       .  A
O1166     Ni1184   1.949       .  S
Ni1167     O1170   1.907       .  S
Ni1167     O1172   1.897       .  S
O1169      C1175   1.280       .  A
O1169     Ni1185   1.927       .  S
C1171      C1208   1.519       .  S
O1172      C1174   1.275       .  A
O1173     Ni1184   1.876       .  S
C1174      C2524   1.452   1_455  S
C1175      C1324   1.465       .  S
H1176      O1177   0.966       .  S
O1177     Ni1185   1.887       .  S
O1177     Ni1184   1.907       .  S
O1178     Ni1179   1.894       .  S
Ni1179     O1183   1.990       .  S
Ni1179     O1181   1.959       .  S
O1180     Ni1185   1.948       .  S
C1182      O1183   1.292       .  A
C1182      C1197   1.515       .  S
O1187      C1208   1.262       .  A
O1187     Ni1193   1.901       .  S
O1188      C1197   1.287       .  A
O1188     Ni1211   1.956       .  S
O1189     Ni1193   1.920       .  S
O1189     Ni1211   1.943       .  S
O1189     Ni1205   1.950       .  S
O1189      H1212   0.966       .  S
C1190      O1207   1.297       .  A
C1190      O1199   1.267       .  A
O1191      C1197   1.274       .  A
O1191     Ni1210   1.926       .  S
O1192      C1194   1.283       .  A
O1192     Ni1210   1.942       .  S
Ni1193     O1196   1.905       .  S
Ni1193     O1198   1.901       .  S
C1194      O1204   1.273       .  A
O1195      C1201   1.279       .  A
O1195     Ni1211   1.927       .  S
O1196      C1201   1.260       .  A
O1198      C1200   1.275       .  A
O1199     Ni1210   1.886       .  S
C1200      O1206   1.279       .  A
C1200      C2550   1.456   1_455  S
C1201      C1350   1.464       .  S
H1202      O1203   0.966       .  S
O1203     Ni1211   1.890       .  S
O1203     Ni1205   1.917       .  S
O1203     Ni1210   1.905       .  S
O1204     Ni1205   1.917       .  S
Ni1205     O1209   2.000       .  S
Ni1205     O1207   1.956       .  S
O1206     Ni1211   1.948       .  S
C1208      O1209   1.295       .  A
O1213      C1234   1.249       .  A
O1213     Ni1219   1.870       .  S
O1214      C1223   1.287       .  A
O1214     Ni1237   1.953       .  S
O1215     Ni1219   1.924       .  S
O1215     Ni1231   1.954       .  S
O1215      H1238   0.966       .  S
C1216      O1233   1.289       .  A
O1217      C1223   1.255       .  A
O1217     Ni1236   1.887       .  S
O1218      C1220   1.247       .  A
O1218     Ni1236   1.881       .  S
Ni1219     O1222   1.841       .  S
Ni1219     O1224   1.912       .  S
O1221      C1227   1.278       .  A
O1221     Ni1237   1.963       .  S
C1223      C1260   1.476       .  S
O1224      C1226   1.277       .  A
O1225     Ni1236   1.907       .  S
C1226      C2334   1.454   1_455  S
H1228      O1229   0.966       .  S
O1229     Ni1237   1.904       .  S
O1229     Ni1236   1.905       .  S
O1230     Ni1231   1.984       .  S
Ni1231     O1235   1.998       .  S
Ni1231     O1233   1.920       .  S
O1232     Ni1237   1.933       .  S
C1234      O1235   1.292       .  A
C1234      C1249   1.504       .  S
O1239      C1260   1.246       .  A
O1239     Ni1245   1.860       .  S
O1240      C1249   1.291       .  A
O1240     Ni1263   1.951       .  S
O1241     Ni1245   1.913       .  S
O1241     Ni1263   1.982       .  S
O1241     Ni1257   1.959       .  S
O1241      H1264   0.966       .  S
C1242      O1259   1.293       .  A
C1242      O1251   1.268       .  A
O1243      C1249   1.273       .  A
O1243     Ni1262   1.924       .  S
O1244      C1246   1.274       .  A
O1244     Ni1262   1.936       .  S
Ni1245     O1248   1.826       .  S
Ni1245     O1250   1.902       .  S
C1246      O1256   1.265       .  A
O1247      C1253   1.276       .  A
O1247     Ni1263   1.967       .  S
O1248      C1253   1.243       .  A
O1250      C1252   1.277       .  A
O1251     Ni1262   1.895       .  S
C1252      O1258   1.285       .  A
C1252      C2712   1.451   1_455  S
C1253      C1357   1.478       .  S
H1254      O1255   0.967       .  S
O1255     Ni1263   1.893       .  S
O1255     Ni1257   1.927       .  S
O1255     Ni1262   1.897       .  S
O1256     Ni1257   1.958       .  S
Ni1257     O1261   1.968       .  S
Ni1257     O1259   1.939       .  S
O1258     Ni1263   1.946       .  S
C1260      O1261   1.285       .  A
O1265      C1286   1.259       .  A
O1265     Ni1271   1.905       .  S
O1266      C1275   1.298       .  A
O1266     Ni1289   1.969       .  S
O1267     Ni1271   1.884       .  S
O1267     Ni1283   1.885       .  S
O1267      H1290   0.966       .  S
C1268      O1285   1.272       .  A
O1269      C1275   1.268       .  A
O1269     Ni1288   1.908       .  S
O1270     Ni1288   1.894       .  S
Ni1271     O1274   1.884       .  S
Ni1271     O1276   1.944       .  S
C1272      O1282   1.300       .  A
O1273      C1279   1.286       .  A
O1273     Ni1289   2.020       .  S
C1275      C1312   1.495       .  S
O1276      C1278   1.278   1_556  A
O1277     Ni1288   1.920       .  S
C1278      C2282   1.454       .  S
H1280      O1281   0.966       .  S
O1281     Ni1289   1.929       .  S
O1281     Ni1288   1.875       .  S
O1282     Ni1283   2.049       .  S
Ni1283     O1287   1.976       .  S
Ni1283     O1285   1.959       .  S
O1284     Ni1289   1.895       .  S
C1286      O1287   1.298       .  A
C1286      C1301   1.497       .  S
O1291      C1312   1.261       .  A
O1291     Ni1297   1.908       .  S
O1292      C1301   1.303       .  A
O1292     Ni1315   1.983       .  S
O1293     Ni1297   1.884       .  S
O1293     Ni1315   1.977       .  S
O1293     Ni1309   1.890       .  S
O1293      H1316   0.966       .  S
C1294      O1311   1.273       .  A
C1294      O1303   1.258       .  A
O1295      C1301   1.262       .  A
O1295     Ni1314   1.892       .  S
O1296      C1298   1.249       .  A
O1296     Ni1314   1.894       .  S
Ni1297     O1300   1.885       .  S
Ni1297     O1302   1.939       .  S
C1298      O1308   1.291       .  A
O1299      C1305   1.283       .  A
O1299     Ni1315   2.013       .  S
O1300      C1305   1.246       .  A
O1302      C1304   1.278       .  A
O1303     Ni1314   1.904       .  S
C1304      O1310   1.270       .  A
C1304      C2660   1.451       .  S
C1305      C1356   1.498       .  S
H1306      O1307   0.967       .  S
O1307     Ni1315   1.917       .  S
O1307     Ni1309   1.967       .  S
O1307     Ni1314   1.869       .  S
O1308     Ni1309   2.032       .  S
Ni1309     O1313   1.969       .  S
Ni1309     O1311   1.961       .  S
O1310     Ni1315   1.896       .  S
C1312      O1313   1.292       .  A
O1317      C1338   1.268       .  A
O1317     Ni2731   1.934       .  S
O1318      C1327   1.259       .  A
O1318     Ni1341   1.921       .  S
O1319     Ni1323   1.896   1_455  S
O1319     Ni2743   1.914   1_455  S
O1319      H1342   0.966       .  S
C1320      O1337   1.258       .  A
O1321      C1327   1.260       .  A
O1321     Ni2748   1.917   1_455  S
O1322      C1324   1.256       .  A
O1322     Ni2748   1.872   1_455  S
Ni1323     O2725   1.934       .  S
Ni1323     O1326   1.950   1_655  S
Ni1323     O2736   1.894       .  S
O1325      C1331   1.288       .  A
O1325     Ni1341   1.915       .  S
C1327      C1380   1.473   1_455  S
O1328      C1330   1.267   1_556  A
O1328     Ni2731   1.894       .  S
O1329     Ni1340   1.987       .  S
H1332      O1333   0.964       .  S
O1333     Ni2749   1.954       .  S
O1333     Ni1340   1.916       .  S
O1334     Ni2743   1.975   1_455  S
Ni1335     O2742   1.975       .  S
Ni1335     O1339   1.853       .  S
Ni1335     O1337   1.888   1_556  S
Ni1335     O2727   1.914       .  S
O1336     Ni2749   1.969       .  S
C1338      O1339   1.264       .  A
C1338      C1373   1.479       .  S
Ni1340     O2729   1.917       .  S
Ni1340     O2730   1.872       .  S
Ni1341     O2744   1.969   1_455  S
Ni1341     O2741   1.954   1_455  S
O1343      C1364   1.269       .  A
O1343     Ni2757   1.938       .  S
O1344      C1353   1.260       .  A
O1344     Ni2775   1.923       .  S
O1345     Ni1349   1.896   1_455  S
O1345     Ni1367   1.871       .  S
O1345     Ni2769   1.910   1_455  S
O1345      H1368   0.966       .  S
C1346      O1363   1.257       .  A
C1346      O1355   1.288       .  A
O1347      C1353   1.260       .  A
O1347     Ni1366   1.920       .  S
O1348      C1350   1.255       .  A
O1348     Ni2774   1.869       .  S
Ni1349     O2751   1.938       .  S
Ni1349     O1352   1.951   1_655  S
Ni1349     O2762   1.892       .  S
C1350      O1360   1.290       .  A
O1351      C1357   1.288       .  A
O1351     Ni1367   1.909       .  S
O1352      C1357   1.281       .  A
C1353      C1370   1.474       .  S
O1354      C1356   1.265       .  A
O1354     Ni2757   1.892       .  S
O1355     Ni1366   1.990       .  S
C1356      O1362   1.272       .  A
H1358      O1359   0.964       .  S
O1359     Ni2775   1.947       .  S
O1359     Ni1361   1.845       .  S
O1359     Ni1366   1.913       .  S
O1360     Ni2769   1.979   1_455  S
Ni1361     O2768   1.979       .  S
Ni1361     O1365   1.851       .  S
Ni1361     O1363   1.884       .  S
Ni1361     O2753   1.910       .  S
O1362     Ni2775   1.971       .  S
C1364      O1365   1.265       .  A
C1364      C1383   1.482       .  S
Ni1366     O2756   1.869       .  S
Ni1367     O2752   1.923       .  S
Ni1367     O2770   1.971   1_455  S
Ni1367     O2767   1.947   1_455  S
C1369      C2778   1.433       .  A
C1369      C1374   1.404       .  A
C1369     Br1376   1.939       .  S
C1370      C2777   1.433       .  A
C1370      C1371   1.432       .  A
C1371      C1372   1.408       .  A
C1371     Br1378   1.935       .  S
C1372      C1373   1.392       .  A
C1372     Br1377   1.921       .  S
C1373      C2782   1.395       .  A
C1374      C2781   1.395       .  A
C1374     Br1375   1.921       .  S
C1379      C1380   1.436       .  A
C1379      C1384   1.406       .  A
C1379     Br1386   1.940       .  S
C1380      C2789   1.434       .  A
C1381      C2788   1.434       .  A
C1381      C1382   1.408       .  A
C1381     Br1388   1.936       .  S
C1382      C1383   1.392       .  A
C1382     Br1387   1.920       .  S
C1383      C2792   1.395       .  A
C1384      C2791   1.395       .  A
C1384     Br1385   1.920       .  S
C1389      C1394   1.403       .  A
C1389     Br1396   1.930       .  S
C1390      C1391   1.441       .  A
C1391      C1392   1.393       .  A
C1391     Br1398   1.951   1_545  S
C1392     Br1397   1.933       .  S
C1393      C1394   1.392       .  A
C1394     Br1395   1.916       .  S
C1399      C1400   1.421       .  A
C1399      C1404   1.410       .  A
C1399     Br1406   1.924       .  S
C1401      C1402   1.411       .  A
C1401     Br1408   1.924       .  S
C1402      C1403   1.404       .  A
C1402     Br1407   1.915       .  S
C1404     Br1405   1.919       .  S
O1409      C1430   1.263       .  A
O1409     Ni2119   1.922       .  S
O1410      C1419   1.257       .  A
O1410     Ni1433   1.798       .  S
O1411     Ni1415   1.908       .  S
O1411     Ni1785   1.823       .  S
O1411     Ni2131   1.972   1_545  S
O1411      H1434   0.962       .  S
C1412      O1429   1.275       .  A
C1412      O1773   1.284       .  A
C1412      C1624   1.512       .  S
O1413      C1419   1.260       .  A
O1413     Ni2136   1.911   1_545  S
O1414      C1416   1.258   1_554  A
O1414     Ni2136   1.861   1_545  S
Ni1415     O2113   1.922   1_545  S
Ni1415     O1418   1.948       .  S
Ni1415     O2124   1.881   1_545  S
C1416      O1778   1.281       .  A
C1416      C1826   1.491       .  S
O1417      C1423   1.253   1_554  A
O1417     Ni1433   1.896       .  S
O1418      C1775   1.274       .  A
C1419      C1752   1.415       .  S
O1420      C1422   1.275       .  A
O1420     Ni2119   1.881       .  S
O1421      C1764   1.284       .  A
O1421     Ni1432   1.938       .  S
C1422      O1780   1.294       .  A
C1422      C1572   1.482       .  S
C1423      O1770   1.274       .  A
C1423      C1520   1.468   1_556  S
H1424      O1425   0.966       .  S
O1425     Ni2137   1.939       .  S
O1425     Ni1779   1.850   1_554  S
O1425     Ni1432   1.883       .  S
O1426      C1768   1.281       .  A
O1426     Ni2131   1.986   1_545  S
Ni1427     O2130   1.986       .  S
Ni1427     O1431   1.873       .  S
Ni1427     O1429   1.957       .  S
Ni1427     O2115   1.972       .  S
Ni1427     O1777   1.850       .  S
O1428      C1774   1.294   1_554  A
O1428     Ni2137   1.998       .  S
C1430      O1431   1.238       .  A
C1430      C1742   1.453       .  S
Ni1432     O2117   1.911       .  S
Ni1432     O2118   1.861       .  S
Ni1433     O2132   1.998   1_545  S
Ni1433     O1763   1.823   1_554  S
Ni1433     O2129   1.939   1_545  S
O1435      C1456   1.266       .  A
O1435     Ni2145   1.922       .  S
O1436      C1445   1.298       .  A
O1436     Ni1459   1.874       .  S
O1437     Ni1441   1.855       .  S
O1437     Ni1459   1.842       .  S
O1437     Ni2157   1.932   1_545  S
O1437      H1460   0.964       .  S
C1438      O1455   1.283       .  A
C1438      O1447   1.286       .  A
C1438      C1650   1.495       .  S
O1439      C1445   1.258       .  A
O1439     Ni2162   1.900   1_545  S
O1440      C1442   1.246   1_565  A
O1440     Ni2162   1.866       .  S
Ni1441     O2139   1.922   1_545  S
Ni1441     O1444   1.936       .  S
Ni1441     O2150   1.863   1_545  S
C1442      O1452   1.280       .  A
C1442      C1500   1.510       .  S
O1443      C1449   1.284       .  A
O1443     Ni1459   1.950       .  S
O1444      C1449   1.287       .  A
C1445      C1745   1.479       .  S
O1446      C1448   1.244       .  A
O1446     Ni2145   1.863       .  S
O1447     Ni1458   1.924       .  S
C1448      O1454   1.290       .  A
C1448      C1598   1.491       .  S
C1449      C1546   1.482       .  S
H1450      O1451   0.965       .  S
O1451     Ni2163   1.905       .  S
O1451     Ni1453   1.834       .  S
O1451     Ni1458   1.834       .  S
O1452     Ni2157   2.013   1_545  S
Ni1453     O2156   2.013       .  S
Ni1453     O1457   1.820       .  S
Ni1453     O1455   1.970       .  S
Ni1453     O2141   1.932       .  S
O1454     Ni2163   2.014       .  S
C1456      O1457   1.280       .  A
C1456      C1755   1.456       .  S
Ni1458     O2143   1.900       .  S
Ni1458     O2144   1.866       .  S
Ni1459     O2158   2.014   1_545  S
Ni1459     O2155   1.905   1_545  S
O1461      C1482   1.270       .  A
O1461     Ni1467   1.941       .  S
O1462      C1471   1.284       .  A
O1462     Ni1485   1.964       .  S
O1463     Ni1467   1.884       .  S
O1463     Ni1837   1.964   1_554  S
O1463     Ni1479   1.880       .  S
O1463      H1486   0.966       .  S
C1464      O1833   1.259       .  A
C1464      O1473   1.273       .  A
C1464      C1672   1.481       .  S
O1465      C1471   1.273       .  A
O1465     Ni1484   1.941       .  S
O1466      C1468   1.270       .  A
O1466     Ni1484   1.886       .  S
Ni1467     O1470   1.892       .  S
Ni1467     O1472   1.898       .  S
C1468      O1830   1.283       .  A
O1469      C1475   1.284       .  A
O1469     Ni1485   1.948       .  S
O1470      C1827   1.274   1_554  A
C1471      C1508   1.518       .  S
O1472      C1826   1.261   1_554  A
O1473     Ni1484   1.954       .  S
C1474      O1824   1.261       .  A
C1474      O1480   1.268       .  A
C1474      C1768   1.491       .  S
C1475      O1822   1.274       .  A
C1475      C2324   1.464   1_545  S
H1476      O1477   0.967       .  S
O1477     Ni1485   1.960       .  S
O1477     Ni1831   1.962       .  S
O1477     Ni1484   1.927       .  S
O1478      C1820   1.283   1_554  A
O1478     Ni1479   1.955       .  S
Ni1479     O1483   1.936       .  S
Ni1479     O1481   1.905       .  S
Ni1479     O1829   1.962   1_554  S
O1480     Ni1485   1.979       .  S
O1481      C1816   1.259       .  A
C1482      O1483   1.274       .  A
C1482      C1497   1.498       .  S
Ni1485     O1815   1.964       .  S
O1487      C1508   1.275       .  A
O1487     Ni1493   1.964       .  S
O1488      C1497   1.277       .  A
O1488     Ni1511   1.939       .  S
O1489     Ni1493   1.867       .  S
O1489     Ni1511   1.937       .  S
O1489     Ni1505   1.866       .  S
O1489      H1512   0.966       .  S
C1490      O1507   1.257       .  A
C1490      O1499   1.274       .  A
C1490      C1698   1.480       .  S
O1491      C1497   1.275       .  A
O1491     Ni1510   1.941       .  S
O1492      C1494   1.269       .  A
O1492     Ni1510   1.883       .  S
Ni1493     O1496   1.907       .  S
Ni1493     O1498   1.923       .  S
C1494      O1504   1.287       .  A
O1495      C1501   1.284       .  A
O1495     Ni1511   1.944       .  S
O1496      C1501   1.282       .  A
O1498      C1500   1.269       .  A
O1499     Ni1510   1.960       .  S
C1500      O1506   1.267       .  A
C1501      C2350   1.469   1_545  S
H1502      O1503   0.967       .  S
O1503     Ni1511   1.964       .  S
O1503     Ni1505   1.960       .  S
O1503     Ni1510   1.921       .  S
O1504     Ni1505   1.968       .  S
Ni1505     O1509   1.941       .  S
Ni1505     O1507   1.900       .  S
O1506     Ni1511   1.977       .  S
C1508      O1509   1.275       .  A
O1513      C1534   1.264       .  A
O1513     Ni1519   1.908       .  S
O1514      C1523   1.291       .  A
O1514     Ni1537   1.960       .  S
O1515     Ni1519   1.913       .  S
O1515     Ni1889   1.941       .  S
O1515     Ni1531   1.947       .  S
O1515      H1538   0.966       .  S
C1516      O1533   1.297       .  A
C1516      O1877   1.266       .  A
C1516      C2624   1.451   1_545  S
O1517      C1523   1.276       .  A
O1517     Ni1536   1.925       .  S
O1518      C1520   1.282       .  A
O1518     Ni1536   1.949       .  S
Ni1519     O1522   1.907       .  S
Ni1519     O1524   1.897       .  S
C1520      O1882   1.264   1_554  A
O1521      C1527   1.280   1_554  A
O1521     Ni1537   1.927       .  S
O1522      C1879   1.261       .  A
C1523      C1560   1.519       .  S
O1524      C1526   1.275       .  A
O1525      C1868   1.266       .  A
O1525     Ni1536   1.876       .  S
C1526      O1884   1.281       .  A
C1527      O1874   1.261       .  A
C1527      C1676   1.465   1_556  S
H1528      O1529   0.966       .  S
O1529     Ni1537   1.887       .  S
O1529     Ni1883   1.911   1_554  S
O1529     Ni1536   1.907       .  S
O1530      C1872   1.264       .  A
O1530     Ni1531   1.894       .  S
Ni1531     O1535   1.990       .  S
Ni1531     O1533   1.959       .  S
Ni1531     O1881   1.911       .  S
O1532      C1878   1.281   1_554  A
O1532     Ni1537   1.948       .  S
C1534      O1535   1.292       .  A
C1534      C1549   1.515       .  S
Ni1537     O1867   1.941   1_554  S
O1539      C1560   1.262       .  A
O1539     Ni1545   1.901       .  S
O1540      C1549   1.287       .  A
O1540     Ni1563   1.956       .  S
O1541     Ni1545   1.920       .  S
O1541     Ni1563   1.943       .  S
O1541     Ni1557   1.950       .  S
O1541      H1564   0.966       .  S
C1542      O1559   1.297       .  A
C1542      O1551   1.267       .  A
C1542      C2298   1.456   1_545  S
O1543      C1549   1.274       .  A
O1543     Ni1562   1.926       .  S
O1544      C1546   1.283       .  A
O1544     Ni1562   1.942       .  S
Ni1545     O1548   1.905       .  S
Ni1545     O1550   1.901       .  S
C1546      O1556   1.273       .  A
O1547      C1553   1.279       .  A
O1547     Ni1563   1.927       .  S
O1548      C1553   1.260       .  A
O1550      C1552   1.275       .  A
O1551     Ni1562   1.886       .  S
C1552      O1558   1.279       .  A
C1553      C1702   1.464       .  S
H1554      O1555   0.966       .  S
O1555     Ni1563   1.890       .  S
O1555     Ni1557   1.917       .  S
O1555     Ni1562   1.906       .  S
O1556     Ni1557   1.917       .  S
Ni1557     O1561   2.000       .  S
Ni1557     O1559   1.956       .  S
O1558     Ni1563   1.948       .  S
C1560      O1561   1.295       .  A
O1565      C1586   1.249       .  A
O1565     Ni1571   1.870       .  S
O1566      C1575   1.287       .  A
O1566     Ni1589   1.953       .  S
O1567     Ni1571   1.924       .  S
O1567     Ni1941   1.986   1_554  S
O1567     Ni1583   1.954       .  S
O1567      H1590   0.966       .  S
C1568      O1585   1.289   1_556  A
C1568      O1929   1.270       .  A
C1568      C2572   1.451   1_556  S
O1569      C1575   1.255       .  A
O1569     Ni1588   1.887       .  S
O1570      C1572   1.247       .  A
O1570     Ni1588   1.881       .  S
Ni1571     O1574   1.841       .  S
Ni1571     O1576   1.912       .  S
C1572      O1934   1.266       .  A
O1573      C1579   1.278       .  A
O1573     Ni1589   1.963       .  S
O1574      C1931   1.247   1_554  A
C1575      C1612   1.476       .  S
O1576      C1578   1.277       .  A
O1577      C1920   1.270       .  A
O1577     Ni1588   1.907       .  S
C1578      O1936   1.278   1_554  A
C1579      O1926   1.247       .  A
C1579      C2035   1.480       .  S
H1580      O1581   0.966       .  S
O1581     Ni1589   1.904       .  S
O1581     Ni1935   1.957       .  S
O1581     Ni1588   1.905       .  S
O1582      C1924   1.266   1_554  A
O1582     Ni1583   1.984       .  S
Ni1583     O1587   1.998       .  S
Ni1583     O1585   1.920       .  S
Ni1583     O1933   1.957   1_554  S
O1584      C1930   1.278       .  A
O1584     Ni1589   1.933       .  S
C1586      O1587   1.292       .  A
C1586      C1601   1.504       .  S
Ni1589     O1919   1.986       .  S
O1591      C1612   1.246       .  A
O1591     Ni1597   1.860       .  S
O1592      C1601   1.291       .  A
O1592     Ni1615   1.951       .  S
O1593     Ni1597   1.913       .  S
O1593     Ni1615   1.982       .  S
O1593     Ni1609   1.959       .  S
O1593      H1616   0.966       .  S
C1594      O1611   1.293       .  A
C1594      O1603   1.268       .  A
C1594      C2246   1.456       .  S
O1595      C1601   1.273       .  A
O1595     Ni1614   1.924       .  S
O1596      C1598   1.274       .  A
O1596     Ni1614   1.936       .  S
Ni1597     O1600   1.826       .  S
Ni1597     O1602   1.902       .  S
C1598      O1608   1.265       .  A
O1599      C1605   1.276       .  A
O1599     Ni1615   1.967       .  S
O1600      C1605   1.243       .  A
O1602      C1604   1.277       .  A
O1603     Ni1614   1.895       .  S
C1604      O1610   1.285       .  A
C1605      C1709   1.478       .  S
H1606      O1607   0.967       .  S
O1607     Ni1615   1.893       .  S
O1607     Ni1609   1.927       .  S
O1607     Ni1614   1.897       .  S
O1608     Ni1609   1.958       .  S
Ni1609     O1613   1.968       .  S
Ni1609     O1611   1.939       .  S
O1610     Ni1615   1.946       .  S
C1612      O1613   1.285       .  A
O1617      C1638   1.259       .  A
O1617     Ni1623   1.905       .  S
O1618      C1627   1.298       .  A
O1618     Ni1641   1.969       .  S
O1619     Ni1623   1.884       .  S
O1619     Ni1993   1.967       .  S
O1619     Ni1635   1.885       .  S
O1619      H1642   0.966       .  S
C1620      O1637   1.272       .  A
C1620      O1981   1.261       .  A
C1620      C2179   1.464       .  S
O1621      C1627   1.268       .  A
O1621     Ni1640   1.908       .  S
O1622      C1976   1.253   1_554  A
O1622     Ni1640   1.894       .  S
Ni1623     O1626   1.884       .  S
Ni1623     O1628   1.944       .  S
C1624      O1974   1.253       .  A
C1624      O1634   1.300       .  A
O1625      C1631   1.286       .  A
O1625     Ni1641   2.020       .  S
O1626      C1983   1.245       .  A
C1627      C1664   1.495       .  S
O1628      C1630   1.278       .  A
O1629      C1972   1.261       .  A
O1629     Ni1640   1.920   1_556  S
C1630      O1988   1.266       .  A
C1631      O1978   1.245   1_554  A
C1631      C2034   1.500       .  S
H1632      O1633   0.966       .  S
O1633     Ni1641   1.929       .  S
O1633     Ni1987   1.962   1_554  S
O1633     Ni1640   1.875       .  S
O1634     Ni1635   2.049       .  S
Ni1635     O1639   1.976       .  S
Ni1635     O1637   1.959       .  S
Ni1635     O1985   1.962       .  S
O1636      C1982   1.266       .  A
O1636     Ni1641   1.895       .  S
C1638      O1639   1.298       .  A
C1638      C1653   1.497       .  S
Ni1641     O1971   1.967   1_554  S
O1643      C1664   1.261       .  A
O1643     Ni1649   1.908       .  S
O1644      C1653   1.303       .  A
O1644     Ni1667   1.983       .  S
O1645     Ni1649   1.884       .  S
O1645     Ni1667   1.977       .  S
O1645     Ni1661   1.890       .  S
O1645      H1668   0.966       .  S
C1646      O1663   1.273       .  A
C1646      O1655   1.258       .  A
C1646      C2205   1.469       .  S
O1647      C1653   1.262       .  A
O1647     Ni1666   1.892       .  S
O1648      C1650   1.249       .  A
O1648     Ni1666   1.894       .  S
Ni1649     O1652   1.885       .  S
Ni1649     O1654   1.939       .  S
C1650      O1660   1.291       .  A
O1651      C1657   1.283       .  A
O1651     Ni1667   2.013       .  S
O1652      C1657   1.246       .  A
O1654      C1656   1.278       .  A
O1655     Ni1666   1.904       .  S
C1656      O1662   1.270       .  A
C1657      C1708   1.498       .  S
H1658      O1659   0.967       .  S
O1659     Ni1667   1.917       .  S
O1659     Ni1661   1.967       .  S
O1659     Ni1666   1.869       .  S
O1660     Ni1661   2.032       .  S
Ni1661     O1665   1.969       .  S
Ni1661     O1663   1.961       .  S
O1662     Ni1667   1.896       .  S
C1664      O1665   1.292       .  A
O1669      C1690   1.268       .  A
O1670      C1679   1.259       .  A
O1670     Ni1693   1.921       .  S
O1671     Ni1675   1.896       .  S
O1671     Ni2045   1.874       .  S
O1671      H1694   0.966       .  S
C1672      O1689   1.258       .  A
C1672      O2033   1.287       .  A
O1673      C1679   1.260       .  A
O1674      C1676   1.256       .  A
Ni1675     O1678   1.950       .  S
C1676      O2038   1.289   1_554  A
O1677      C1683   1.288   1_554  A
O1677     Ni1693   1.915       .  S
O1678      C2035   1.281       .  A
C1679      C1732   1.473       .  S
O1680      C1682   1.267       .  A
O1681      C2024   1.287       .  A
O1681     Ni1692   1.987       .  S
C1682      O2040   1.271       .  A
C1682      C1983   1.500       .  S
C1683      O2030   1.281       .  A
C1683      C1931   1.480       .  S
H1684      O1685   0.964       .  S
O1685     Ni2039   1.846   1_554  S
O1685     Ni1692   1.916       .  S
O1686      C2028   1.289       .  A
Ni1687     O1691   1.853       .  S
Ni1687     O1689   1.888       .  S
Ni1687     O2037   1.846       .  S
O1688      C2034   1.271       .  A
C1690      O1691   1.264       .  A
C1690      C1725   1.479       .  S
Ni1693     O2023   1.874   1_554  S
O1695      C1716   1.269       .  A
O1696      C1705   1.260       .  A
O1697     Ni1701   1.896       .  S
O1697     Ni1719   1.871       .  S
O1697      H1720   0.966       .  S
C1698      O1715   1.257       .  A
C1698      O1707   1.288       .  A
O1699      C1705   1.260       .  A
O1699     Ni1718   1.920       .  S
O1700      C1702   1.255       .  A
Ni1701     O1704   1.951       .  S
C1702      O1712   1.290       .  A
O1703      C1709   1.288       .  A
O1703     Ni1719   1.909       .  S
O1704      C1709   1.281       .  A
C1705      C1722   1.474   1_455  S
O1706      C1708   1.265       .  A
O1707     Ni1718   1.990   1_655  S
C1708      O1714   1.272       .  A
H1710      O1711   0.964       .  S
O1711     Ni1713   1.845       .  S
O1711     Ni1718   1.913   1_655  S
Ni1713     O1717   1.851       .  S
Ni1713     O1715   1.884       .  S
C1716      O1717   1.265       .  A
C1716      C1735   1.482       .  S
C1721      C1726   1.404       .  A
C1721     Br1728   1.939       .  S
C1722      C1723   1.432       .  A
C1723      C1724   1.408       .  A
C1723     Br1730   1.935   1_655  S
C1724      C1725   1.392       .  A
C1724     Br1729   1.921       .  S
C1726     Br1727   1.921       .  S
C1731      C1732   1.436       .  A
C1731      C1736   1.406       .  A
C1731     Br1738   1.940       .  S
C1733      C1734   1.408       .  A
C1733     Br1740   1.936       .  S
C1734      C1735   1.392       .  A
C1734     Br1739   1.920       .  S
C1736     Br1737   1.920       .  S
C1741      C2446   1.433       .  A
C1741      C1746   1.403       .  A
C1741     Br1748   1.930       .  S
C1742      C2445   1.433       .  A
C1742      C1743   1.441       .  A
C1743      C1744   1.393       .  A
C1743     Br1750   1.951       .  S
C1744      C2449   1.402       .  A
C1744     Br1749   1.933       .  S
C1745      C2448   1.402       .  A
C1745      C1746   1.392       .  A
C1746     Br1747   1.916       .  S
C1751      C1752   1.421       .  A
C1751      C1756   1.410   1_545  A
C1751     Br1758   1.924       .  S
C1752      C2457   1.417   1_545  A
C1753      C2456   1.417       .  A
C1753      C1754   1.411       .  A
C1753     Br1760   1.924       .  S
C1754      C1755   1.404       .  A
C1754     Br1759   1.915       .  S
C1755      C2460   1.401       .  A
C1756      C2459   1.401       .  A
C1756     Br1757   1.919   1_565  S
O1761      C1782   1.263       .  A
O1761     Ni2471   1.922       .  S
O1762      C1771   1.257       .  A
O1762     Ni1785   1.798       .  S
O1763     Ni1767   1.908       .  S
O1763     Ni2483   1.972   1_545  S
O1763      H1786   0.962       .  S
C1764      O1781   1.275   1_554  A
C1764      C1976   1.512   1_554  S
O1765      C1771   1.260       .  A
O1765     Ni2488   1.911   1_545  S
O1766      C1768   1.258       .  A
O1766     Ni2488   1.861   1_545  S
Ni1767     O2465   1.922   1_545  S
Ni1767     O1770   1.948       .  S
Ni1767     O2476   1.881   1_545  S
O1769      C1775   1.253       .  A
O1769     Ni1785   1.896       .  S
C1771      C2104   1.415       .  S
O1772      C1774   1.275       .  A
O1772     Ni2471   1.881       .  S
O1773     Ni1784   1.938       .  S
C1774      C1924   1.482       .  S
C1775      C1872   1.468       .  S
H1776      O1777   0.966       .  S
O1777     Ni2489   1.939       .  S
O1777     Ni1784   1.883       .  S
O1778     Ni2483   1.986   1_545  S
Ni1779     O2482   1.986       .  S
Ni1779     O1783   1.873       .  S
Ni1779     O1781   1.957       .  S
Ni1779     O2467   1.972       .  S
O1780     Ni2489   1.998       .  S
C1782      O1783   1.238       .  A
C1782      C2094   1.453       .  S
Ni1784     O2469   1.911       .  S
Ni1784     O2470   1.861       .  S
Ni1785     O2484   1.998   1_545  S
Ni1785     O2481   1.939   1_545  S
O1787      C1808   1.266       .  A
O1787     Ni2497   1.922       .  S
O1788      C1797   1.298       .  A
O1788     Ni1811   1.874       .  S
O1789     Ni1793   1.855       .  S
O1789     Ni1811   1.842       .  S
O1789     Ni2509   1.932   1_545  S
O1789      H1812   0.964       .  S
C1790      O1807   1.283       .  A
C1790      O1799   1.286       .  A
C1790      C2002   1.495       .  S
O1791      C1797   1.258       .  A
O1791     Ni2514   1.900   1_545  S
O1792      C1794   1.246   1_565  A
O1792     Ni2514   1.866       .  S
Ni1793     O2491   1.922   1_545  S
Ni1793     O1796   1.936       .  S
Ni1793     O2502   1.863   1_545  S
C1794      O1804   1.280       .  A
C1794      C1852   1.510       .  S
O1795      C1801   1.284       .  A
O1795     Ni1811   1.950       .  S
O1796      C1801   1.287       .  A
C1797      C2097   1.479       .  S
O1798      C1800   1.244       .  A
O1798     Ni2497   1.863       .  S
O1799     Ni1810   1.924       .  S
C1800      O1806   1.290       .  A
C1800      C1950   1.491       .  S
C1801      C1898   1.482       .  S
H1802      O1803   0.965       .  S
O1803     Ni2515   1.905       .  S
O1803     Ni1805   1.834       .  S
O1803     Ni1810   1.834       .  S
O1804     Ni2509   2.013   1_545  S
Ni1805     O2508   2.013       .  S
Ni1805     O1809   1.820       .  S
Ni1805     O1807   1.970       .  S
Ni1805     O2493   1.932       .  S
O1806     Ni2515   2.014       .  S
C1808      O1809   1.280       .  A
C1808      C2107   1.456       .  S
Ni1810     O2495   1.900       .  S
Ni1810     O2496   1.866       .  S
Ni1811     O2510   2.014   1_545  S
Ni1811     O2507   1.905   1_545  S
O1813      C1834   1.270       .  A
O1813     Ni1819   1.941       .  S
O1814      C1823   1.284       .  A
O1814     Ni1837   1.964       .  S
O1815     Ni1819   1.884       .  S
O1815     Ni1831   1.880       .  S
O1815      H1838   0.966       .  S
C1816      O1825   1.273   1_554  A
C1816      C2024   1.481       .  S
O1817      C1823   1.273       .  A
O1817     Ni1836   1.941       .  S
O1818      C1820   1.270       .  A
O1818     Ni1836   1.886       .  S
Ni1819     O1822   1.892       .  S
Ni1819     O1824   1.898       .  S
O1821      C1827   1.284       .  A
O1821     Ni1837   1.948       .  S
C1823      C1860   1.518       .  S
O1825     Ni1836   1.954       .  S
C1826      O1832   1.268       .  A
C1827      C2676   1.464   1_545  S
H1828      O1829   0.967       .  S
O1829     Ni1837   1.960       .  S
O1829     Ni1836   1.927       .  S
O1830     Ni1831   1.955       .  S
Ni1831     O1835   1.936       .  S
Ni1831     O1833   1.905       .  S
O1832     Ni1837   1.979       .  S
C1834      O1835   1.274       .  A
C1834      C1849   1.498       .  S
O1839      C1860   1.275       .  A
O1839     Ni1845   1.964       .  S
O1840      C1849   1.277       .  A
O1840     Ni1863   1.939       .  S
O1841     Ni1845   1.867       .  S
O1841     Ni1863   1.937       .  S
O1841     Ni1857   1.866       .  S
O1841      H1864   0.966       .  S
C1842      O1859   1.257       .  A
C1842      O1851   1.274       .  A
C1842      C2050   1.480       .  S
O1843      C1849   1.275       .  A
O1843     Ni1862   1.941       .  S
O1844      C1846   1.269       .  A
O1844     Ni1862   1.883       .  S
Ni1845     O1848   1.907       .  S
Ni1845     O1850   1.923       .  S
C1846      O1856   1.287       .  A
O1847      C1853   1.284       .  A
O1847     Ni1863   1.944       .  S
O1848      C1853   1.282       .  A
O1850      C1852   1.269       .  A
O1851     Ni1862   1.960       .  S
C1852      O1858   1.267       .  A
C1853      C2702   1.469   1_545  S
H1854      O1855   0.967       .  S
O1855     Ni1863   1.964       .  S
O1855     Ni1857   1.960       .  S
O1855     Ni1862   1.921       .  S
O1856     Ni1857   1.968       .  S
Ni1857     O1861   1.941       .  S
Ni1857     O1859   1.900       .  S
O1858     Ni1863   1.977       .  S
C1860      O1861   1.275       .  A
O1865      C1886   1.264       .  A
O1865     Ni1871   1.908       .  S
O1866      C1875   1.291       .  A
O1866     Ni1889   1.960       .  S
O1867     Ni1871   1.913       .  S
O1867     Ni1883   1.947       .  S
O1867      H1890   0.966       .  S
C1868      O1885   1.297   1_554  A
C1868      C2272   1.451   1_544  S
O1869      C1875   1.276       .  A
O1869     Ni1888   1.925       .  S
O1870      C1872   1.282       .  A
O1870     Ni1888   1.949       .  S
Ni1871     O1874   1.907       .  S
Ni1871     O1876   1.897       .  S
O1873      C1879   1.280       .  A
O1873     Ni1889   1.927       .  S
C1875      C1912   1.519       .  S
O1876      C1878   1.275       .  A
O1877     Ni1888   1.876       .  S
C1879      C2028   1.465       .  S
H1880      O1881   0.966       .  S
O1881     Ni1889   1.887       .  S
O1881     Ni1888   1.907       .  S
O1882     Ni1883   1.894       .  S
Ni1883     O1887   1.990       .  S
Ni1883     O1885   1.959       .  S
O1884     Ni1889   1.948       .  S
C1886      O1887   1.292       .  A
C1886      C1901   1.515       .  S
O1891      C1912   1.262       .  A
O1891     Ni1897   1.901       .  S
O1892      C1901   1.287       .  A
O1892     Ni1915   1.956       .  S
O1893     Ni1897   1.920       .  S
O1893     Ni1915   1.943       .  S
O1893     Ni1909   1.950       .  S
O1893      H1916   0.966       .  S
C1894      O1911   1.297       .  A
C1894      O1903   1.267       .  A
C1894      C2650   1.456   1_545  S
O1895      C1901   1.274       .  A
O1895     Ni1914   1.926       .  S
O1896      C1898   1.283       .  A
O1896     Ni1914   1.942       .  S
Ni1897     O1900   1.905       .  S
Ni1897     O1902   1.901       .  S
C1898      O1908   1.273       .  A
O1899      C1905   1.279       .  A
O1899     Ni1915   1.927       .  S
O1900      C1905   1.260       .  A
O1902      C1904   1.275       .  A
O1903     Ni1914   1.886       .  S
C1904      O1910   1.279       .  A
C1905      C2054   1.464       .  S
H1906      O1907   0.966       .  S
O1907     Ni1915   1.890       .  S
O1907     Ni1909   1.917       .  S
O1907     Ni1914   1.905       .  S
O1908     Ni1909   1.917       .  S
Ni1909     O1913   2.000       .  S
Ni1909     O1911   1.956       .  S
O1910     Ni1915   1.948       .  S
C1912      O1913   1.295       .  A
O1917      C1938   1.249       .  A
O1917     Ni1923   1.870       .  S
O1918      C1927   1.287       .  A
O1918     Ni1941   1.953       .  S
O1919     Ni1923   1.924       .  S
O1919     Ni1935   1.954       .  S
O1919      H1942   0.966       .  S
C1920      O1937   1.289       .  A
C1920      C2220   1.451       .  S
O1921      C1927   1.255       .  A
O1921     Ni1940   1.887       .  S
O1922      C1924   1.247       .  A
O1922     Ni1940   1.881       .  S
Ni1923     O1926   1.841       .  S
Ni1923     O1928   1.912       .  S
O1925      C1931   1.278       .  A
O1925     Ni1941   1.963       .  S
C1927      C1964   1.476       .  S
O1928      C1930   1.277       .  A
O1929     Ni1940   1.907       .  S
H1932      O1933   0.966       .  S
O1933     Ni1941   1.904       .  S
O1933     Ni1940   1.905       .  S
O1934     Ni1935   1.984       .  S
Ni1935     O1939   1.998       .  S
Ni1935     O1937   1.920       .  S
O1936     Ni1941   1.933       .  S
C1938      O1939   1.292       .  A
C1938      C1953   1.504       .  S
O1943      C1964   1.246       .  A
O1943     Ni1949   1.860       .  S
O1944      C1953   1.291       .  A
O1944     Ni1967   1.951       .  S
O1945     Ni1949   1.913       .  S
O1945     Ni1967   1.982       .  S
O1945     Ni1961   1.959       .  S
O1945      H1968   0.966       .  S
C1946      O1963   1.293       .  A
C1946      O1955   1.268       .  A
C1946      C2598   1.456       .  S
O1947      C1953   1.273       .  A
O1947     Ni1966   1.924       .  S
O1948      C1950   1.274       .  A
O1948     Ni1966   1.936       .  S
Ni1949     O1952   1.826       .  S
Ni1949     O1954   1.902       .  S
C1950      O1960   1.265       .  A
O1951      C1957   1.276       .  A
O1951     Ni1967   1.967       .  S
O1952      C1957   1.243       .  A
O1954      C1956   1.277       .  A
O1955     Ni1966   1.895       .  S
C1956      O1962   1.285       .  A
C1957      C2061   1.478       .  S
H1958      O1959   0.967       .  S
O1959     Ni1967   1.893       .  S
O1959     Ni1961   1.927       .  S
O1959     Ni1966   1.897       .  S
O1960     Ni1961   1.958       .  S
Ni1961     O1965   1.968       .  S
Ni1961     O1963   1.939       .  S
O1962     Ni1967   1.946       .  S
C1964      O1965   1.285       .  A
O1969      C1990   1.259       .  A
O1969     Ni1975   1.905       .  S
O1970      C1979   1.298       .  A
O1970     Ni1993   1.969       .  S
O1971     Ni1975   1.884       .  S
O1971     Ni1987   1.885       .  S
O1971      H1994   0.966       .  S
C1972      O1989   1.272       .  A
C1972      C2531   1.464       .  S
O1973      C1979   1.268       .  A
O1973     Ni1992   1.908       .  S
O1974     Ni1992   1.894       .  S
Ni1975     O1978   1.884       .  S
Ni1975     O1980   1.944       .  S
C1976      O1986   1.300       .  A
O1977      C1983   1.286       .  A
O1977     Ni1993   2.020       .  S
C1979      C2016   1.495       .  S
O1980      C1982   1.278   1_556  A
O1981     Ni1992   1.920       .  S
H1984      O1985   0.966       .  S
O1985     Ni1993   1.929       .  S
O1985     Ni1992   1.875       .  S
O1986     Ni1987   2.049       .  S
Ni1987     O1991   1.976       .  S
Ni1987     O1989   1.959       .  S
O1988     Ni1993   1.895       .  S
C1990      O1991   1.298       .  A
C1990      C2005   1.497       .  S
O1995      C2016   1.261       .  A
O1995     Ni2001   1.908       .  S
O1996      C2005   1.303       .  A
O1996     Ni2019   1.983       .  S
O1997     Ni2001   1.884       .  S
O1997     Ni2019   1.977       .  S
O1997     Ni2013   1.890       .  S
O1997      H2020   0.966       .  S
C1998      O2015   1.273       .  A
C1998      O2007   1.258       .  A
C1998      C2557   1.469       .  S
O1999      C2005   1.262       .  A
O1999     Ni2018   1.892       .  S
O2000      C2002   1.249       .  A
O2000     Ni2018   1.894       .  S
Ni2001     O2004   1.885       .  S
Ni2001     O2006   1.939       .  S
C2002      O2012   1.291       .  A
O2003      C2009   1.283       .  A
O2003     Ni2019   2.013       .  S
O2004      C2009   1.246       .  A
O2006      C2008   1.278       .  A
O2007     Ni2018   1.904       .  S
C2008      O2014   1.270       .  A
C2009      C2060   1.498       .  S
H2010      O2011   0.967       .  S
O2011     Ni2019   1.917       .  S
O2011     Ni2013   1.967       .  S
O2011     Ni2018   1.869       .  S
O2012     Ni2013   2.032       .  S
Ni2013     O2017   1.969       .  S
Ni2013     O2015   1.961       .  S
O2014     Ni2019   1.896       .  S
C2016      O2017   1.292       .  A
O2021      C2042   1.268       .  A
O2022      C2031   1.259       .  A
O2022     Ni2045   1.921       .  S
O2023     Ni2027   1.896       .  S
O2023      H2046   0.966       .  S
C2024      O2041   1.258       .  A
O2025      C2031   1.260       .  A
O2026      C2028   1.256       .  A
Ni2027     O2030   1.950       .  S
O2029      C2035   1.288       .  A
O2029     Ni2045   1.915       .  S
C2031      C2084   1.473       .  S
O2032      C2034   1.267   1_556  A
O2033     Ni2044   1.987       .  S
H2036      O2037   0.964       .  S
O2037     Ni2044   1.916       .  S
Ni2039     O2043   1.853       .  S
Ni2039     O2041   1.888   1_556  S
C2042      O2043   1.264       .  A
C2042      C2077   1.479       .  S
O2047      C2068   1.269       .  A
O2048      C2057   1.260       .  A
O2049     Ni2053   1.896       .  S
O2049     Ni2071   1.871       .  S
O2049      H2072   0.966       .  S
C2050      O2067   1.257       .  A
C2050      O2059   1.288       .  A
O2051      C2057   1.260       .  A
O2051     Ni2070   1.920       .  S
O2052      C2054   1.255       .  A
Ni2053     O2056   1.951       .  S
C2054      O2064   1.290       .  A
O2055      C2061   1.288       .  A
O2055     Ni2071   1.909       .  S
O2056      C2061   1.281       .  A
C2057      C2074   1.474   1_455  S
O2058      C2060   1.265       .  A
O2059     Ni2070   1.990   1_655  S
C2060      O2066   1.272       .  A
H2062      O2063   0.964       .  S
O2063     Ni2065   1.845       .  S
O2063     Ni2070   1.913   1_655  S
Ni2065     O2069   1.851       .  S
Ni2065     O2067   1.884       .  S
C2068      O2069   1.265       .  A
C2068      C2087   1.482       .  S
C2073      C2078   1.404       .  A
C2073     Br2080   1.939       .  S
C2074      C2075   1.432       .  A
C2075      C2076   1.408       .  A
C2075     Br2082   1.935   1_655  S
C2076      C2077   1.392       .  A
C2076     Br2081   1.921       .  S
C2078     Br2079   1.921       .  S
C2083      C2084   1.436       .  A
C2083      C2088   1.406       .  A
C2083     Br2090   1.940       .  S
C2085      C2086   1.408       .  A
C2085     Br2092   1.936       .  S
C2086      C2087   1.392       .  A
C2086     Br2091   1.920       .  S
C2088     Br2089   1.920       .  S
C2093      C2798   1.433       .  A
C2093      C2098   1.403       .  A
C2093     Br2100   1.930       .  S
C2094      C2797   1.433       .  A
C2094      C2095   1.441       .  A
C2095      C2096   1.393       .  A
C2095     Br2102   1.951       .  S
C2096      C2801   1.402       .  A
C2096     Br2101   1.933       .  S
C2097      C2800   1.402       .  A
C2097      C2098   1.392       .  A
C2098     Br2099   1.916       .  S
C2103      C2104   1.421       .  A
C2103      C2108   1.410   1_545  A
C2103     Br2110   1.924       .  S
C2104      C2809   1.417   1_545  A
C2105      C2808   1.417       .  A
C2105      C2106   1.411       .  A
C2105     Br2112   1.924       .  S
C2106      C2107   1.404       .  A
C2106     Br2111   1.915       .  S
C2107      C2812   1.401       .  A
C2108      C2811   1.401       .  A
C2108     Br2109   1.919   1_565  S
O2113      C2134   1.263       .  A
O2114      C2123   1.257       .  A
O2114     Ni2137   1.798       .  S
O2115     Ni2119   1.908       .  S
O2115     Ni2489   1.823       .  S
O2115      H2138   0.962       .  S
C2116      O2133   1.275       .  A
C2116      O2477   1.284       .  A
C2116      C2328   1.512       .  S
O2117      C2123   1.260       .  A
O2118      C2120   1.258   1_554  A
Ni2119     O2122   1.948       .  S
C2120      O2482   1.281       .  A
C2120      C2530   1.491       .  S
O2121      C2127   1.253   1_554  A
O2121     Ni2137   1.896       .  S
O2122      C2479   1.274       .  A
C2123      C2456   1.415       .  S
O2124      C2126   1.275       .  A
O2125      C2468   1.284       .  A
O2125     Ni2136   1.938       .  S
C2126      O2484   1.294       .  A
C2126      C2276   1.482       .  S
C2127      O2474   1.274       .  A
C2127      C2224   1.468   1_556  S
H2128      O2129   0.966       .  S
O2129     Ni2483   1.850   1_554  S
O2129     Ni2136   1.883       .  S
O2130      C2472   1.281       .  A
Ni2131     O2135   1.873       .  S
Ni2131     O2133   1.957       .  S
Ni2131     O2481   1.850       .  S
O2132      C2478   1.294   1_554  A
C2134      O2135   1.238       .  A
C2134      C2446   1.453   1_565  S
Ni2137     O2467   1.823   1_554  S
O2139      C2160   1.266       .  A
O2140      C2149   1.298       .  A
O2140     Ni2163   1.874       .  S
O2141     Ni2145   1.855       .  S
O2141     Ni2163   1.842       .  S
O2141      H2164   0.964       .  S
C2142      O2159   1.283       .  A
C2142      O2151   1.286       .  A
C2142      C2354   1.495       .  S
O2143      C2149   1.258       .  A
O2144      C2146   1.246       .  A
Ni2145     O2148   1.936       .  S
C2146      O2156   1.280       .  A
C2146      C2204   1.510       .  S
O2147      C2153   1.284       .  A
O2147     Ni2163   1.950       .  S
O2148      C2153   1.287       .  A
C2149      C2449   1.479       .  S
O2150      C2152   1.244       .  A
O2151     Ni2162   1.924       .  S
C2152      O2158   1.290       .  A
C2152      C2302   1.491       .  S
C2153      C2250   1.482       .  S
H2154      O2155   0.965       .  S
O2155     Ni2157   1.834       .  S
O2155     Ni2162   1.834       .  S
Ni2157     O2161   1.820       .  S
Ni2157     O2159   1.970       .  S
C2160      O2161   1.280       .  A
C2160      C2459   1.456       .  S
O2165      C2186   1.270       .  A
O2165     Ni2171   1.941       .  S
O2166      C2175   1.284       .  A
O2166     Ni2189   1.964       .  S
O2167     Ni2171   1.884       .  S
O2167     Ni2541   1.964   1_554  S
O2167     Ni2183   1.880       .  S
O2167      H2190   0.966       .  S
C2168      O2537   1.259       .  A
C2168      O2177   1.273       .  A
C2168      C2376   1.481       .  S
O2169      C2175   1.273       .  A
O2169     Ni2188   1.941       .  S
O2170      C2172   1.270       .  A
O2170     Ni2188   1.886       .  S
Ni2171     O2174   1.892       .  S
Ni2171     O2176   1.898       .  S
C2172      O2534   1.283       .  A
O2173      C2179   1.284       .  A
O2173     Ni2189   1.948       .  S
O2174      C2531   1.274   1_554  A
C2175      C2212   1.518       .  S
O2176      C2530   1.261   1_554  A
O2177     Ni2188   1.954       .  S
C2178      O2528   1.261       .  A
C2178      O2184   1.268       .  A
C2178      C2472   1.491       .  S
C2179      O2526   1.274       .  A
H2180      O2181   0.967       .  S
O2181     Ni2189   1.960       .  S
O2181     Ni2535   1.962       .  S
O2181     Ni2188   1.927       .  S
O2182      C2524   1.283   1_554  A
O2182     Ni2183   1.955       .  S
Ni2183     O2187   1.936       .  S
Ni2183     O2185   1.905       .  S
Ni2183     O2533   1.962   1_554  S
O2184     Ni2189   1.979       .  S
O2185      C2520   1.259       .  A
C2186      O2187   1.274       .  A
C2186      C2201   1.498       .  S
Ni2189     O2519   1.964       .  S
O2191      C2212   1.275       .  A
O2191     Ni2197   1.964       .  S
O2192      C2201   1.277       .  A
O2192     Ni2215   1.939       .  S
O2193     Ni2197   1.867       .  S
O2193     Ni2215   1.937       .  S
O2193     Ni2209   1.866       .  S
O2193      H2216   0.966       .  S
C2194      O2211   1.257       .  A
C2194      O2203   1.274       .  A
C2194      C2402   1.480       .  S
O2195      C2201   1.275       .  A
O2195     Ni2214   1.941       .  S
O2196      C2198   1.269       .  A
O2196     Ni2214   1.883       .  S
Ni2197     O2200   1.907       .  S
Ni2197     O2202   1.923       .  S
C2198      O2208   1.287       .  A
O2199      C2205   1.284       .  A
O2199     Ni2215   1.944       .  S
O2200      C2205   1.282       .  A
O2202      C2204   1.269       .  A
O2203     Ni2214   1.960       .  S
C2204      O2210   1.267       .  A
H2206      O2207   0.967       .  S
O2207     Ni2215   1.964       .  S
O2207     Ni2209   1.960       .  S
O2207     Ni2214   1.921       .  S
O2208     Ni2209   1.968       .  S
Ni2209     O2213   1.941       .  S
Ni2209     O2211   1.900       .  S
O2210     Ni2215   1.977       .  S
C2212      O2213   1.275       .  A
O2217      C2238   1.264       .  A
O2217     Ni2223   1.908       .  S
O2218      C2227   1.291       .  A
O2218     Ni2241   1.960       .  S
O2219     Ni2223   1.913       .  S
O2219     Ni2593   1.941       .  S
O2219     Ni2235   1.947       .  S
O2219      H2242   0.966       .  S
C2220      O2237   1.297       .  A
C2220      O2581   1.266       .  A
O2221      C2227   1.276       .  A
O2221     Ni2240   1.925       .  S
O2222      C2224   1.282       .  A
O2222     Ni2240   1.949       .  S
Ni2223     O2226   1.907       .  S
Ni2223     O2228   1.897       .  S
C2224      O2586   1.264   1_554  A
O2225      C2231   1.280   1_554  A
O2225     Ni2241   1.927       .  S
O2226      C2583   1.261       .  A
C2227      C2264   1.519       .  S
O2228      C2230   1.275       .  A
O2229      C2572   1.266       .  A
O2229     Ni2240   1.876       .  S
C2230      O2588   1.281       .  A
C2231      O2578   1.261       .  A
C2231      C2380   1.465   1_556  S
H2232      O2233   0.966       .  S
O2233     Ni2241   1.887       .  S
O2233     Ni2587   1.911   1_554  S
O2233     Ni2240   1.907       .  S
O2234      C2576   1.264       .  A
O2234     Ni2235   1.894       .  S
Ni2235     O2239   1.990       .  S
Ni2235     O2237   1.959       .  S
Ni2235     O2585   1.911       .  S
O2236      C2582   1.281   1_554  A
O2236     Ni2241   1.948       .  S
C2238      O2239   1.292       .  A
C2238      C2253   1.515       .  S
Ni2241     O2571   1.941   1_554  S
O2243      C2264   1.262       .  A
O2243     Ni2249   1.901       .  S
O2244      C2253   1.287       .  A
O2244     Ni2267   1.956       .  S
O2245     Ni2249   1.920       .  S
O2245     Ni2267   1.943       .  S
O2245     Ni2261   1.950       .  S
O2245      H2268   0.966       .  S
C2246      O2263   1.297       .  A
C2246      O2255   1.267       .  A
O2247      C2253   1.274       .  A
O2247     Ni2266   1.926       .  S
O2248      C2250   1.283       .  A
O2248     Ni2266   1.942       .  S
Ni2249     O2252   1.905       .  S
Ni2249     O2254   1.901       .  S
C2250      O2260   1.273       .  A
O2251      C2257   1.279       .  A
O2251     Ni2267   1.927       .  S
O2252      C2257   1.260       .  A
O2254      C2256   1.275       .  A
O2255     Ni2266   1.886       .  S
C2256      O2262   1.279       .  A
C2257      C2406   1.464       .  S
H2258      O2259   0.966       .  S
O2259     Ni2267   1.890       .  S
O2259     Ni2261   1.917       .  S
O2259     Ni2266   1.906       .  S
O2260     Ni2261   1.917       .  S
Ni2261     O2265   2.000       .  S
Ni2261     O2263   1.956       .  S
O2262     Ni2267   1.948       .  S
C2264      O2265   1.295       .  A
O2269      C2290   1.249       .  A
O2269     Ni2275   1.870       .  S
O2270      C2279   1.287       .  A
O2270     Ni2293   1.953       .  S
O2271     Ni2275   1.924       .  S
O2271     Ni2645   1.986   1_554  S
O2271     Ni2287   1.954       .  S
O2271      H2294   0.966       .  S
C2272      O2289   1.289   1_556  A
C2272      O2633   1.270       .  A
O2273      C2279   1.255       .  A
O2273     Ni2292   1.887       .  S
O2274      C2276   1.247       .  A
O2274     Ni2292   1.881       .  S
Ni2275     O2278   1.841       .  S
Ni2275     O2280   1.912       .  S
C2276      O2638   1.266       .  A
O2277      C2283   1.278       .  A
O2277     Ni2293   1.963       .  S
O2278      C2635   1.247   1_554  A
C2279      C2316   1.476       .  S
O2280      C2282   1.277       .  A
O2281      C2624   1.270       .  A
O2281     Ni2292   1.907       .  S
C2282      O2640   1.278   1_554  A
C2283      O2630   1.247       .  A
C2283      C2739   1.480       .  S
H2284      O2285   0.966       .  S
O2285     Ni2293   1.904       .  S
O2285     Ni2639   1.957       .  S
O2285     Ni2292   1.905       .  S
O2286      C2628   1.266   1_554  A
O2286     Ni2287   1.984       .  S
Ni2287     O2291   1.998       .  S
Ni2287     O2289   1.920       .  S
Ni2287     O2637   1.957   1_554  S
O2288      C2634   1.278       .  A
O2288     Ni2293   1.933       .  S
C2290      O2291   1.292       .  A
C2290      C2305   1.504       .  S
Ni2293     O2623   1.986       .  S
O2295      C2316   1.246       .  A
O2295     Ni2301   1.860       .  S
O2296      C2305   1.291       .  A
O2296     Ni2319   1.951       .  S
O2297     Ni2301   1.913       .  S
O2297     Ni2319   1.982       .  S
O2297     Ni2313   1.959       .  S
O2297      H2320   0.966       .  S
C2298      O2315   1.293       .  A
C2298      O2307   1.268       .  A
O2299      C2305   1.273       .  A
O2299     Ni2318   1.924       .  S
O2300      C2302   1.274       .  A
O2300     Ni2318   1.936       .  S
Ni2301     O2304   1.826       .  S
Ni2301     O2306   1.902       .  S
C2302      O2312   1.265       .  A
O2303      C2309   1.276       .  A
O2303     Ni2319   1.967       .  S
O2304      C2309   1.243       .  A
O2306      C2308   1.277       .  A
O2307     Ni2318   1.895       .  S
C2308      O2314   1.285       .  A
C2309      C2413   1.478       .  S
H2310      O2311   0.967       .  S
O2311     Ni2319   1.893       .  S
O2311     Ni2313   1.927       .  S
O2311     Ni2318   1.897       .  S
O2312     Ni2313   1.958       .  S
Ni2313     O2317   1.968       .  S
Ni2313     O2315   1.939       .  S
O2314     Ni2319   1.946       .  S
C2316      O2317   1.285       .  A
O2321      C2342   1.259       .  A
O2321     Ni2327   1.905       .  S
O2322      C2331   1.298       .  A
O2322     Ni2345   1.969       .  S
O2323     Ni2327   1.884       .  S
O2323     Ni2697   1.967       .  S
O2323     Ni2339   1.885       .  S
O2323      H2346   0.966       .  S
C2324      O2341   1.272       .  A
C2324      O2685   1.261       .  A
O2325      C2331   1.268       .  A
O2325     Ni2344   1.908       .  S
O2326      C2680   1.253   1_554  A
O2326     Ni2344   1.894       .  S
Ni2327     O2330   1.884       .  S
Ni2327     O2332   1.944       .  S
C2328      O2678   1.253       .  A
C2328      O2338   1.300       .  A
O2329      C2335   1.286       .  A
O2329     Ni2345   2.020       .  S
O2330      C2687   1.245       .  A
C2331      C2368   1.495       .  S
O2332      C2334   1.278       .  A
O2333      C2676   1.261       .  A
O2333     Ni2344   1.920   1_556  S
C2334      O2692   1.266       .  A
C2335      O2682   1.245   1_554  A
C2335      C2738   1.500       .  S
H2336      O2337   0.966       .  S
O2337     Ni2345   1.929       .  S
O2337     Ni2691   1.962   1_554  S
O2337     Ni2344   1.875       .  S
O2338     Ni2339   2.049       .  S
Ni2339     O2343   1.976       .  S
Ni2339     O2341   1.959       .  S
Ni2339     O2689   1.962       .  S
O2340      C2686   1.266       .  A
O2340     Ni2345   1.895       .  S
C2342      O2343   1.298       .  A
C2342      C2357   1.497       .  S
Ni2345     O2675   1.967   1_554  S
O2347      C2368   1.261       .  A
O2347     Ni2353   1.908       .  S
O2348      C2357   1.303       .  A
O2348     Ni2371   1.983       .  S
O2349     Ni2353   1.884       .  S
O2349     Ni2371   1.977       .  S
O2349     Ni2365   1.890       .  S
O2349      H2372   0.966       .  S
C2350      O2367   1.273       .  A
C2350      O2359   1.258       .  A
O2351      C2357   1.262       .  A
O2351     Ni2370   1.892       .  S
O2352      C2354   1.249       .  A
O2352     Ni2370   1.894       .  S
Ni2353     O2356   1.885       .  S
Ni2353     O2358   1.939       .  S
C2354      O2364   1.291       .  A
O2355      C2361   1.283       .  A
O2355     Ni2371   2.013       .  S
O2356      C2361   1.246       .  A
O2358      C2360   1.278       .  A
O2359     Ni2370   1.904       .  S
C2360      O2366   1.270       .  A
C2361      C2412   1.498       .  S
H2362      O2363   0.967       .  S
O2363     Ni2371   1.917       .  S
O2363     Ni2365   1.967       .  S
O2363     Ni2370   1.869       .  S
O2364     Ni2365   2.032       .  S
Ni2365     O2369   1.969       .  S
Ni2365     O2367   1.961       .  S
O2366     Ni2371   1.896       .  S
C2368      O2369   1.292       .  A
O2373      C2394   1.268       .  A
O2374      C2383   1.259       .  A
O2374     Ni2397   1.921       .  S
O2375     Ni2379   1.896       .  S
O2375     Ni2749   1.874       .  S
O2375      H2398   0.966       .  S
C2376      O2393   1.258       .  A
C2376      O2737   1.287       .  A
O2377      C2383   1.260       .  A
O2378      C2380   1.256       .  A
Ni2379     O2382   1.950       .  S
C2380      O2742   1.289   1_554  A
O2381      C2387   1.288   1_554  A
O2381     Ni2397   1.915       .  S
O2382      C2739   1.281       .  A
C2383      C2436   1.473       .  S
O2384      C2386   1.267       .  A
O2385      C2728   1.287       .  A
O2385     Ni2396   1.987       .  S
C2386      O2744   1.271       .  A
C2386      C2687   1.500       .  S
C2387      O2734   1.281       .  A
C2387      C2635   1.480       .  S
H2388      O2389   0.964       .  S
O2389     Ni2743   1.846   1_554  S
O2389     Ni2396   1.916       .  S
O2390      C2732   1.289       .  A
Ni2391     O2395   1.853       .  S
Ni2391     O2393   1.888       .  S
Ni2391     O2741   1.846       .  S
O2392      C2738   1.271       .  A
C2394      O2395   1.264       .  A
C2394      C2429   1.479       .  S
Ni2397     O2727   1.874   1_554  S
O2399      C2420   1.269       .  A
O2400      C2409   1.260       .  A
O2401     Ni2405   1.896       .  S
O2401     Ni2423   1.871       .  S
O2401      H2424   0.966       .  S
C2402      O2419   1.257       .  A
C2402      O2411   1.288       .  A
O2403      C2409   1.260       .  A
O2403     Ni2422   1.920       .  S
O2404      C2406   1.255       .  A
Ni2405     O2408   1.951       .  S
C2406      O2416   1.290       .  A
O2407      C2413   1.288       .  A
O2407     Ni2423   1.909       .  S
O2408      C2413   1.281       .  A
C2409      C2426   1.474   1_455  S
O2410      C2412   1.265       .  A
O2411     Ni2422   1.990   1_655  S
C2412      O2418   1.272       .  A
H2414      O2415   0.964       .  S
O2415     Ni2417   1.845       .  S
O2415     Ni2422   1.913   1_655  S
Ni2417     O2421   1.851       .  S
Ni2417     O2419   1.884       .  S
C2420      O2421   1.265       .  A
C2420      C2439   1.482       .  S
C2425      C2430   1.404       .  A
C2425     Br2432   1.939       .  S
C2426      C2427   1.432       .  A
C2427      C2428   1.408       .  A
C2427     Br2434   1.935   1_655  S
C2428      C2429   1.392       .  A
C2428     Br2433   1.921       .  S
C2430     Br2431   1.921       .  S
C2435      C2436   1.436       .  A
C2435      C2440   1.406       .  A
C2435     Br2442   1.940       .  S
C2437      C2438   1.408       .  A
C2437     Br2444   1.936       .  S
C2438      C2439   1.392       .  A
C2438     Br2443   1.920       .  S
C2440     Br2441   1.920       .  S
C2445      C2450   1.403       .  A
C2445     Br2452   1.930       .  S
C2446      C2447   1.441       .  A
C2447      C2448   1.393       .  A
C2447     Br2454   1.951   1_545  S
C2448     Br2453   1.933       .  S
C2449      C2450   1.392       .  A
C2450     Br2451   1.916       .  S
C2455      C2456   1.421       .  A
C2455      C2460   1.410       .  A
C2455     Br2462   1.924       .  S
C2457      C2458   1.411       .  A
C2457     Br2464   1.924       .  S
C2458      C2459   1.404       .  A
C2458     Br2463   1.915       .  S
C2460     Br2461   1.919       .  S
O2465      C2486   1.263       .  A
O2466      C2475   1.257       .  A
O2466     Ni2489   1.798       .  S
O2467     Ni2471   1.908       .  S
O2467      H2490   0.962       .  S
C2468      O2485   1.275   1_554  A
C2468      C2680   1.512   1_554  S
O2469      C2475   1.260       .  A
O2470      C2472   1.258       .  A
Ni2471     O2474   1.948       .  S
O2473      C2479   1.253       .  A
O2473     Ni2489   1.896       .  S
C2475      C2808   1.415       .  S
O2476      C2478   1.275       .  A
O2477     Ni2488   1.938       .  S
C2478      C2628   1.482       .  S
C2479      C2576   1.468       .  S
H2480      O2481   0.966       .  S
O2481     Ni2488   1.883       .  S
Ni2483     O2487   1.873       .  S
Ni2483     O2485   1.957       .  S
C2486      O2487   1.238       .  A
C2486      C2798   1.453   1_565  S
O2491      C2512   1.266       .  A
O2492      C2501   1.298       .  A
O2492     Ni2515   1.874       .  S
O2493     Ni2497   1.855       .  S
O2493     Ni2515   1.842       .  S
O2493      H2516   0.964       .  S
C2494      O2511   1.283       .  A
C2494      O2503   1.286       .  A
C2494      C2706   1.495       .  S
O2495      C2501   1.258       .  A
O2496      C2498   1.246       .  A
Ni2497     O2500   1.936       .  S
C2498      O2508   1.280       .  A
C2498      C2556   1.510       .  S
O2499      C2505   1.284       .  A
O2499     Ni2515   1.950       .  S
O2500      C2505   1.287       .  A
C2501      C2801   1.479       .  S
O2502      C2504   1.244       .  A
O2503     Ni2514   1.924       .  S
C2504      O2510   1.290       .  A
C2504      C2654   1.491       .  S
C2505      C2602   1.482       .  S
H2506      O2507   0.965       .  S
O2507     Ni2509   1.834       .  S
O2507     Ni2514   1.834       .  S
Ni2509     O2513   1.820       .  S
Ni2509     O2511   1.970       .  S
C2512      O2513   1.280       .  A
C2512      C2811   1.456       .  S
O2517      C2538   1.270       .  A
O2517     Ni2523   1.941       .  S
O2518      C2527   1.284       .  A
O2518     Ni2541   1.964       .  S
O2519     Ni2523   1.884       .  S
O2519     Ni2535   1.880       .  S
O2519      H2542   0.966       .  S
C2520      O2529   1.273   1_554  A
C2520      C2728   1.481       .  S
O2521      C2527   1.273       .  A
O2521     Ni2540   1.941       .  S
O2522      C2524   1.270       .  A
O2522     Ni2540   1.886       .  S
Ni2523     O2526   1.892       .  S
Ni2523     O2528   1.898       .  S
O2525      C2531   1.284       .  A
O2525     Ni2541   1.948       .  S
C2527      C2564   1.518       .  S
O2529     Ni2540   1.954       .  S
C2530      O2536   1.268       .  A
H2532      O2533   0.967       .  S
O2533     Ni2541   1.960       .  S
O2533     Ni2540   1.927       .  S
O2534     Ni2535   1.955       .  S
Ni2535     O2539   1.936       .  S
Ni2535     O2537   1.905       .  S
O2536     Ni2541   1.979       .  S
C2538      O2539   1.274       .  A
C2538      C2553   1.498       .  S
O2543      C2564   1.275       .  A
O2543     Ni2549   1.964       .  S
O2544      C2553   1.277       .  A
O2544     Ni2567   1.939       .  S
O2545     Ni2549   1.867       .  S
O2545     Ni2567   1.937       .  S
O2545     Ni2561   1.866       .  S
O2545      H2568   0.966       .  S
C2546      O2563   1.257       .  A
C2546      O2555   1.274       .  A
C2546      C2754   1.480       .  S
O2547      C2553   1.275       .  A
O2547     Ni2566   1.941       .  S
O2548      C2550   1.269       .  A
O2548     Ni2566   1.883       .  S
Ni2549     O2552   1.907       .  S
Ni2549     O2554   1.923       .  S
C2550      O2560   1.287       .  A
O2551      C2557   1.284       .  A
O2551     Ni2567   1.944       .  S
O2552      C2557   1.282       .  A
O2554      C2556   1.269       .  A
O2555     Ni2566   1.960       .  S
C2556      O2562   1.267       .  A
H2558      O2559   0.967       .  S
O2559     Ni2567   1.964       .  S
O2559     Ni2561   1.960       .  S
O2559     Ni2566   1.921       .  S
O2560     Ni2561   1.968       .  S
Ni2561     O2565   1.941       .  S
Ni2561     O2563   1.900       .  S
O2562     Ni2567   1.977       .  S
C2564      O2565   1.275       .  A
O2569      C2590   1.264       .  A
O2569     Ni2575   1.908       .  S
O2570      C2579   1.291       .  A
O2570     Ni2593   1.960       .  S
O2571     Ni2575   1.913       .  S
O2571     Ni2587   1.947       .  S
O2571      H2594   0.966       .  S
C2572      O2589   1.297   1_554  A
O2573      C2579   1.276       .  A
O2573     Ni2592   1.925       .  S
O2574      C2576   1.282       .  A
O2574     Ni2592   1.949       .  S
Ni2575     O2578   1.907       .  S
Ni2575     O2580   1.897       .  S
O2577      C2583   1.280       .  A
O2577     Ni2593   1.927       .  S
C2579      C2616   1.519       .  S
O2580      C2582   1.275       .  A
O2581     Ni2592   1.876       .  S
C2583      C2732   1.465       .  S
H2584      O2585   0.966       .  S
O2585     Ni2593   1.887       .  S
O2585     Ni2592   1.907       .  S
O2586     Ni2587   1.894       .  S
Ni2587     O2591   1.990       .  S
Ni2587     O2589   1.959       .  S
O2588     Ni2593   1.948       .  S
C2590      O2591   1.292       .  A
C2590      C2605   1.515       .  S
O2595      C2616   1.262       .  A
O2595     Ni2601   1.901       .  S
O2596      C2605   1.287       .  A
O2596     Ni2619   1.956       .  S
O2597     Ni2601   1.920       .  S
O2597     Ni2619   1.943       .  S
O2597     Ni2613   1.950       .  S
O2597      H2620   0.966       .  S
C2598      O2615   1.297       .  A
C2598      O2607   1.267       .  A
O2599      C2605   1.274       .  A
O2599     Ni2618   1.926       .  S
O2600      C2602   1.283       .  A
O2600     Ni2618   1.942       .  S
Ni2601     O2604   1.905       .  S
Ni2601     O2606   1.901       .  S
C2602      O2612   1.273       .  A
O2603      C2609   1.279       .  A
O2603     Ni2619   1.927       .  S
O2604      C2609   1.260       .  A
O2606      C2608   1.275       .  A
O2607     Ni2618   1.886       .  S
C2608      O2614   1.279       .  A
C2609      C2758   1.464       .  S
H2610      O2611   0.966       .  S
O2611     Ni2619   1.890       .  S
O2611     Ni2613   1.917       .  S
O2611     Ni2618   1.905       .  S
O2612     Ni2613   1.917       .  S
Ni2613     O2617   2.000       .  S
Ni2613     O2615   1.956       .  S
O2614     Ni2619   1.948       .  S
C2616      O2617   1.295       .  A
O2621      C2642   1.249       .  A
O2621     Ni2627   1.870       .  S
O2622      C2631   1.287       .  A
O2622     Ni2645   1.953       .  S
O2623     Ni2627   1.924       .  S
O2623     Ni2639   1.954       .  S
O2623      H2646   0.966       .  S
C2624      O2641   1.289       .  A
O2625      C2631   1.255       .  A
O2625     Ni2644   1.887       .  S
O2626      C2628   1.247       .  A
O2626     Ni2644   1.881       .  S
Ni2627     O2630   1.841       .  S
Ni2627     O2632   1.912       .  S
O2629      C2635   1.278       .  A
O2629     Ni2645   1.963       .  S
C2631      C2668   1.476       .  S
O2632      C2634   1.277       .  A
O2633     Ni2644   1.907       .  S
H2636      O2637   0.966       .  S
O2637     Ni2645   1.904       .  S
O2637     Ni2644   1.905       .  S
O2638     Ni2639   1.984       .  S
Ni2639     O2643   1.998       .  S
Ni2639     O2641   1.920       .  S
O2640     Ni2645   1.933       .  S
C2642      O2643   1.292       .  A
C2642      C2657   1.504       .  S
O2647      C2668   1.246       .  A
O2647     Ni2653   1.860       .  S
O2648      C2657   1.291       .  A
O2648     Ni2671   1.951       .  S
O2649     Ni2653   1.913       .  S
O2649     Ni2671   1.982       .  S
O2649     Ni2665   1.959       .  S
O2649      H2672   0.966       .  S
C2650      O2667   1.293       .  A
C2650      O2659   1.268       .  A
O2651      C2657   1.273       .  A
O2651     Ni2670   1.924       .  S
O2652      C2654   1.274       .  A
O2652     Ni2670   1.936       .  S
Ni2653     O2656   1.826       .  S
Ni2653     O2658   1.902       .  S
C2654      O2664   1.265       .  A
O2655      C2661   1.276       .  A
O2655     Ni2671   1.967       .  S
O2656      C2661   1.243       .  A
O2658      C2660   1.277       .  A
O2659     Ni2670   1.895       .  S
C2660      O2666   1.285       .  A
C2661      C2765   1.478       .  S
H2662      O2663   0.967       .  S
O2663     Ni2671   1.893       .  S
O2663     Ni2665   1.927       .  S
O2663     Ni2670   1.897       .  S
O2664     Ni2665   1.958       .  S
Ni2665     O2669   1.968       .  S
Ni2665     O2667   1.939       .  S
O2666     Ni2671   1.946       .  S
C2668      O2669   1.285       .  A
O2673      C2694   1.259       .  A
O2673     Ni2679   1.905       .  S
O2674      C2683   1.298       .  A
O2674     Ni2697   1.969       .  S
O2675     Ni2679   1.884       .  S
O2675     Ni2691   1.885       .  S
O2675      H2698   0.966       .  S
C2676      O2693   1.272       .  A
O2677      C2683   1.268       .  A
O2677     Ni2696   1.908       .  S
O2678     Ni2696   1.894       .  S
Ni2679     O2682   1.884       .  S
Ni2679     O2684   1.944       .  S
C2680      O2690   1.300       .  A
O2681      C2687   1.286       .  A
O2681     Ni2697   2.020       .  S
C2683      C2720   1.495       .  S
O2684      C2686   1.278   1_556  A
O2685     Ni2696   1.920       .  S
H2688      O2689   0.966       .  S
O2689     Ni2697   1.929       .  S
O2689     Ni2696   1.875       .  S
O2690     Ni2691   2.049       .  S
Ni2691     O2695   1.976       .  S
Ni2691     O2693   1.959       .  S
O2692     Ni2697   1.895       .  S
C2694      O2695   1.298       .  A
C2694      C2709   1.497       .  S
O2699      C2720   1.261       .  A
O2699     Ni2705   1.908       .  S
O2700      C2709   1.303       .  A
O2700     Ni2723   1.983       .  S
O2701     Ni2705   1.884       .  S
O2701     Ni2723   1.977       .  S
O2701     Ni2717   1.890       .  S
O2701      H2724   0.966       .  S
C2702      O2719   1.273       .  A
C2702      O2711   1.258       .  A
O2703      C2709   1.262       .  A
O2703     Ni2722   1.892       .  S
O2704      C2706   1.249       .  A
O2704     Ni2722   1.894       .  S
Ni2705     O2708   1.885       .  S
Ni2705     O2710   1.939       .  S
C2706      O2716   1.291       .  A
O2707      C2713   1.283       .  A
O2707     Ni2723   2.013       .  S
O2708      C2713   1.246       .  A
O2710      C2712   1.278       .  A
O2711     Ni2722   1.904       .  S
C2712      O2718   1.270       .  A
C2713      C2764   1.498       .  S
H2714      O2715   0.967       .  S
O2715     Ni2723   1.917       .  S
O2715     Ni2717   1.967       .  S
O2715     Ni2722   1.869       .  S
O2716     Ni2717   2.032       .  S
Ni2717     O2721   1.969       .  S
Ni2717     O2719   1.961       .  S
O2718     Ni2723   1.896       .  S
C2720      O2721   1.292       .  A
O2725      C2746   1.268       .  A
O2726      C2735   1.259       .  A
O2726     Ni2749   1.921       .  S
O2727     Ni2731   1.896       .  S
O2727      H2750   0.966       .  S
C2728      O2745   1.258       .  A
O2729      C2735   1.260       .  A
O2730      C2732   1.256       .  A
Ni2731     O2734   1.950       .  S
O2733      C2739   1.288       .  A
O2733     Ni2749   1.915       .  S
C2735      C2788   1.473       .  S
O2736      C2738   1.267   1_556  A
O2737     Ni2748   1.987       .  S
H2740      O2741   0.964       .  S
O2741     Ni2748   1.916       .  S
Ni2743     O2747   1.853       .  S
Ni2743     O2745   1.888   1_556  S
C2746      O2747   1.264       .  A
C2746      C2781   1.479       .  S
O2751      C2772   1.269       .  A
O2752      C2761   1.260       .  A
O2753     Ni2757   1.896       .  S
O2753     Ni2775   1.871       .  S
O2753      H2776   0.966       .  S
C2754      O2771   1.257       .  A
C2754      O2763   1.288       .  A
O2755      C2761   1.260       .  A
O2755     Ni2774   1.920       .  S
O2756      C2758   1.255       .  A
Ni2757     O2760   1.951       .  S
C2758      O2768   1.290       .  A
O2759      C2765   1.288       .  A
O2759     Ni2775   1.909       .  S
O2760      C2765   1.281       .  A
C2761      C2778   1.474   1_455  S
O2762      C2764   1.265       .  A
O2763     Ni2774   1.990   1_655  S
C2764      O2770   1.272       .  A
H2766      O2767   0.964       .  S
O2767     Ni2769   1.845       .  S
O2767     Ni2774   1.913   1_655  S
Ni2769     O2773   1.851       .  S
Ni2769     O2771   1.884       .  S
C2772      O2773   1.265       .  A
C2772      C2791   1.482       .  S
C2777      C2782   1.404       .  A
C2777     Br2784   1.939       .  S
C2778      C2779   1.432       .  A
C2779      C2780   1.408       .  A
C2779     Br2786   1.935   1_655  S
C2780      C2781   1.392       .  A
C2780     Br2785   1.921       .  S
C2782     Br2783   1.921       .  S
C2787      C2788   1.436       .  A
C2787      C2792   1.406       .  A
C2787     Br2794   1.940       .  S
C2789      C2790   1.408       .  A
C2789     Br2796   1.936       .  S
C2790      C2791   1.392       .  A
C2790     Br2795   1.920       .  S
C2792     Br2793   1.920       .  S
C2797      C2802   1.403       .  A
C2797     Br2804   1.930       .  S
C2798      C2799   1.441       .  A
C2799      C2800   1.393       .  A
C2799     Br2806   1.951   1_545  S
C2800     Br2805   1.933       .  S
C2801      C2802   1.392       .  A
C2802     Br2803   1.916       .  S
C2807      C2808   1.421       .  A
C2807      C2812   1.410       .  A
C2807     Br2814   1.924       .  S
C2809      C2810   1.411       .  A
C2809     Br2816   1.924       .  S
C2810      C2811   1.404       .  A
C2810     Br2815   1.915       .  S
C2812     Br2813   1.919       .  S
