geometry optimzed in LAMMPS
_audit_creation_date              2020-11-30 
_audit_creation_method            'lammps2cif' 
_symmetry_space_group_name_H-M    'P1' 
_symmetry_Int_Tables_number       1 
_symmetry_cell_setting            triclinic 
loop_ 
_symmetry_equiv_pos_as_xyz 
  x,y,z 
_cell_length_a                    30.01812445 
_cell_length_b                    33.091183276941045 
_cell_length_c                    31.608281627378187 
_cell_angle_alpha                 90.0066217271016 
_cell_angle_beta                  90.30311361651238 
_cell_angle_gamma                 90.28571187751416 
loop_ 
_atom_site_label 
_atom_site_type_symbol 
_atom_site_fract_x 
_atom_site_fract_y 
_atom_site_fract_z 
_atom_site_charge 
C1          C  0.36667484  0.40152898  0.09705837     0.42800
N2          N  0.36202160  0.45368370  0.05689588     0.01700
C3          C  0.17632530  0.57895426  0.06091321    -0.06200
H4          H  0.13432635  0.43725612  0.05187982     0.07200
C5          C  0.22280928  0.42971084  0.89972353    -0.06500
Co6        Co  0.28488304  0.50507822  0.08104046     0.74200
N7          N  0.19972214  0.46482955  0.05342920    -0.25700
Co8        Co  0.20281275  0.50565959  0.00263537     0.74100
C9          C  0.17724009  0.41780711  0.90878178     0.42900
N10         N  0.33183596  0.44795599  0.93342087     0.01300
N11         N  0.20024585  0.45982187  0.95640809     0.01400
N12         N  0.23270657  0.57719854  0.10799290    -0.46500
H13         H  0.30709840  0.42162227  0.13685462     0.07200
N14         N  0.23190329  0.46445803  0.08213947     0.01700
N15         N  0.20869290  0.54649619  0.95230424     0.01500
C16         C  0.19197069  0.58584948  0.90025263     0.43100
N17         N  0.36263101  0.44723181  0.96328904    -0.25100
C18         C  0.34248720  0.58113567  0.09919303    -0.06100
N19         N  0.38447664  0.41966054  0.06267908    -0.46300
N20         N  0.17723324  0.57081651  0.93755324    -0.46500
C21         C  0.38127984  0.60047711  0.08042220     0.42800
N22         N  0.23916354  0.55138332  0.07693831     0.01700
N23         N  0.37135281  0.53517655  0.95670121    -0.25200
N24         N  0.32995352  0.45816110  0.08474063    -0.25700
N25         N  0.34012492  0.53637407  0.92738308     0.01300
H26         H  0.42835210  0.57279051  0.96971365     0.07200
H27         H  0.25421945  0.56717849  0.86380608     0.07300
N28         N  0.20658433  0.55138131  0.04875582    -0.25700
N29         N  0.23382298  0.45609635  0.92990505    -0.25300
N30         N  0.36926906  0.54305172  0.04998510     0.01700
C31         C  0.18185772  0.42531696  0.10827498     0.43100
C32         C  0.38443351  0.41199667  0.96078086    -0.06600
N33         N  0.24199398  0.54284034  0.92548817    -0.25300
H34         H  0.24195661  0.42422120  0.87143282     0.07300
N35         N  0.22239872  0.44158016  0.11503857    -0.46500
H36         H  0.41082001  0.40248840  0.98186728     0.07200
C37         C  0.38208783  0.58734449  0.91330617     0.42900
C38         C  0.33056126  0.42697872  0.11161882    -0.06100
Co39       Co  0.36782002  0.49461655  0.00676523     0.73800
N40         N  0.33067292  0.41438453  0.91066945    -0.46300
C41         C  0.19386134  0.59608360  0.10078263     0.43200
N42         N  0.39556677  0.57549717  0.04940580    -0.46300
Co43       Co  0.28730800  0.49581029  0.92855025     0.73900
C44         C  0.23511951  0.56740660  0.89273206    -0.06600
C45         C  0.16637306  0.44089514  0.06720345    -0.06100
N46         N  0.33731406  0.54626169  0.07821764    -0.25700
N47         N  0.16478248  0.43864564  0.94376540    -0.46400
H48         H  0.14444594  0.58366862  0.04574162     0.07200
C49         C  0.40007600  0.56539652  0.94979749    -0.06600
Cl50       Cl  0.28543115  0.50022788  0.00476021    -0.49600
C51         C  0.36301164  0.39004354  0.92575449     0.43000
H52         H  0.31983738  0.59310058  0.12247037     0.07200
N53         N  0.34479622  0.56740058  0.90125567    -0.46300
C54         C  0.81153254  0.42206991  0.10182076     0.42800
N55         N  0.79485738  0.46384857  0.05182834     0.01700
C56         C  0.61071489  0.58717613  0.04008619    -0.06200
H57         H  0.57803450  0.42308872  0.01983814     0.07200
C58         C  0.67179569  0.42733586  0.89776356    -0.06500
Co59       Co  0.71027826  0.50650466  0.07402551     0.74200
N60         N  0.63112242  0.46316224  0.03910339    -0.25700
Co61       Co  0.63383392  0.50706307  0.99225525     0.74100
C62         C  0.63425360  0.40442737  0.91429050     0.42900
N63         N  0.77033149  0.46325051  0.92571680     0.01300
N64         N  0.63855135  0.46154587  0.94648650     0.01400
N65         N  0.66148753  0.58529341  0.09281462    -0.46500
H66         H  0.74561340  0.43359670  0.13569174     0.07200
N67         N  0.66073314  0.46181318  0.06993349     0.01700
N68         N  0.63829651  0.55082669  0.94502618     0.01500
C69         C  0.62945148  0.60483026  0.90781308     0.43100
N70         N  0.80134339  0.46363256  0.95546788    -0.25100
C71         C  0.76623205  0.57705872  0.10746044    -0.06100
N72         N  0.82739513  0.44056678  0.06658523    -0.46300
N73         N  0.61258194  0.58291604  0.94014192    -0.46500
C74         C  0.80962824  0.59518766  0.09932751     0.42800
N75         N  0.66211124  0.55166630  0.06998672     0.01700
N76         N  0.80155383  0.55042851  0.95356958    -0.25200
N77         N  0.75969776  0.46316630  0.07680732    -0.25700
N78         N  0.76986573  0.55052628  0.92439350     0.01300
H79         H  0.86660362  0.57877050  0.95540447     0.07200
H80         H  0.69261387  0.59100626  0.86907999     0.07300
N81         N  0.63320001  0.55224597  0.03844942    -0.25700
N82         N  0.67234247  0.46171548  0.92004768    -0.25300
N83         N  0.79443443  0.55139259  0.05081820     0.01700
C84         C  0.62169454  0.40746964  0.07745692     0.43100
C85         C  0.83328832  0.43718901  0.94450542    -0.06600
N86         N  0.67172780  0.55045608  0.91831458    -0.25300
H87         H  0.69647234  0.41820843  0.87496162     0.07300
N88         N  0.65673325  0.42865590  0.09334588    -0.46500
H89         H  0.86431285  0.43278667  0.96133484     0.07200
C90         C  0.81920415  0.59099401  0.89883863     0.42900
C91         C  0.76667758  0.43703414  0.10824374    -0.06100
Co92       Co  0.79917180  0.50744120  0.00315237     0.73800
N93         N  0.77932711  0.43807680  0.89474139    -0.46300
C94         C  0.62951250  0.60907402  0.07618310     0.43200
N95         N  0.82571204  0.57715000  0.06401506    -0.46300
Co96       Co  0.72083394  0.50654124  0.92158508     0.73900
C97         C  0.66879201  0.58294406  0.89319284    -0.06600
C98         C  0.60455087  0.43068570  0.04174474    -0.06100
N99         N  0.76001660  0.55021865  0.07666186    -0.25700
N100        N  0.61512343  0.42748002  0.94439977    -0.46400
H101        H  0.58648048  0.59744645  0.01721142     0.07200
C102        C  0.83452300  0.57516242  0.94012057    -0.06600
Cl103      Cl  0.71622164  0.50694957  0.99777546    -0.49600
C104        C  0.81820835  0.42004261  0.90387658     0.43000
H105        H  0.74501152  0.58000171  0.13481169     0.07200
N106        N  0.77915483  0.57394791  0.89189132    -0.46300
C107        C  0.40208998  0.10187273  0.14331775     0.42800
N108        N  0.43754588  0.04573327  0.14478184     0.01700
C109        C  0.44215575  0.92853828  0.32762914    -0.06200
H110        H  0.45438622  0.06861090  0.36113120     0.07200
C111        C  0.61350163  0.07111361  0.26450014    -0.06500
Co112      Co  0.41573138  0.99773830  0.22202610     0.74200
N113        N  0.45056992  0.04073166  0.29921022    -0.25700
Co114      Co  0.50384398  0.99943956  0.29435363     0.74100
C115        C  0.60855462  0.08380333  0.30814925     0.42900
N116        N  0.56771965  0.05125526  0.16331531     0.01300
N117        N  0.55342500  0.04485942  0.29070463     0.01400
N118        N  0.38968799  0.92763134  0.27657768    -0.46500
H119        H  0.36400938  0.08632015  0.20389583     0.07200
N120        N  0.41831638  0.03985095  0.27056887     0.01700
N121        N  0.55676324  0.95806647  0.28735772     0.01500
C122        C  0.61271508  0.91919963  0.30028620     0.43100
N123        N  0.53466401  0.04951181  0.13583707    -0.25100
C124        C  0.39010237  0.92044629  0.17106241    -0.06100
N125        N  0.43377583  0.08017167  0.12374242    -0.46300
N126        N  0.57510742  0.93503180  0.31716701    -0.46500
C127        C  0.40621790  0.90051466  0.13275775     0.42800
N128        N  0.42241149  0.95273478  0.26707791     0.01700
N129        N  0.53869087  0.96097060  0.13303631    -0.25200
N130        N  0.41081735  0.04390370  0.17765729    -0.25700
N131        N  0.57212295  0.96148248  0.16012298     0.01300
H132        H  0.51952514  0.91991500  0.08336413     0.07200
H133        H  0.64589606  0.93572309  0.23776663     0.07300
N134        N  0.45404894  0.95401919  0.29631973    -0.25700
N135        N  0.57894864  0.04670921  0.25677790    -0.25300
N136        N  0.44099125  0.95697026  0.14153678     0.01700
C137        C  0.39266962  0.07919145  0.31867373     0.43100
C138        C  0.53517706  0.08304700  0.11221423    -0.06600
N139        N  0.58214076  0.96026531  0.25334857    -0.25300
H140        H  0.64237248  0.07416037  0.24439002     0.07300
N141        N  0.38354883  0.06166595  0.28131581    -0.46500
H142        H  0.51126069  0.09038162  0.08776373     0.07200
C143        C  0.58290609  0.90775091  0.12293197     0.42900
C144        C  0.38678466  0.07789853  0.17908806    -0.06100
Co145      Co  0.48784046  0.00322079  0.13754825     0.73800
N146        N  0.59047977  0.08568880  0.16080329    -0.46300
C147        C  0.39945418  0.91053714  0.31400600     0.43200
N148        N  0.43781456  0.92508872  0.11645170    -0.46300
Co149      Co  0.57567562  0.00505066  0.20793601     0.73900
C150        C  0.61724674  0.93620398  0.25829585    -0.06600
C151        C  0.43725766  0.06490396  0.33118900    -0.06100
N152        N  0.41385143  0.95478314  0.17400351    -0.25700
N153        N  0.57104706  0.06558783  0.32282704    -0.46400
H154        H  0.45879902  0.92599135  0.35792988     0.07200
C155        C  0.54292733  0.92865734  0.10777714    -0.06600
Cl156      Cl  0.49582981  0.00134035  0.21589208    -0.49600
C157        C  0.57182717  0.10742497  0.12905379     0.43000
H158        H  0.36622428  0.90995346  0.19410672     0.07200
N159        N  0.59888613  0.93005101  0.15556999    -0.46300
C160        C  0.38545569  0.07759232  0.71086584     0.42800
N161        N  0.43953913  0.03623467  0.72237563     0.01700
C162        C  0.45781896  0.91789439  0.90288872    -0.06200
H163        H  0.46428017  0.08620932  0.92210683     0.07200
C164        C  0.59859843  0.08359462  0.83978083    -0.06500
Co165      Co  0.41877850  0.99025736  0.80240473     0.74200
N166        N  0.44925332  0.03982405  0.87600010    -0.25700
Co167      Co  0.50245550  0.99987645  0.87645186     0.74100
C168        C  0.58039230  0.10575317  0.87516560     0.42900
N169        N  0.57334602  0.04512446  0.74607424     0.01300
N170        N  0.54742680  0.04829532  0.87085213     0.01400
N171        N  0.40563680  0.91168418  0.85183086    -0.46500
H172        H  0.35027375  0.05891032  0.77182485     0.07200
N173        N  0.41727327  0.03598958  0.84761958     0.01700
N174        N  0.55527172  0.95950618  0.87451374     0.01500
C175        C  0.59560793  0.90648767  0.88333328     0.43100
N176        N  0.54289741  0.04182281  0.71587857    -0.25100
C177        C  0.38893484  0.91857751  0.74881805    -0.06100
N178        N  0.42347964  0.06224623  0.69385281    -0.46300
N179        N  0.56052514  0.92714956  0.89864012    -0.46500
C180        C  0.39658598  0.90444931  0.70597260     0.42800
N181        N  0.42652754  0.94696336  0.84952844     0.01700
N182        N  0.54860155  0.95534521  0.71921777    -0.25200
N183        N  0.41279993  0.03282523  0.75529482    -0.25700
N184        N  0.57871001  0.95817115  0.74978966     0.01300
H185        H  0.54732985  0.92031146  0.66123943     0.07200
H186        H  0.63639542  0.92063209  0.82400376     0.07300
N187        N  0.45785861  0.95106805  0.87849158    -0.25700
N188        N  0.57605851  0.04873273  0.83935013    -0.25300
N189        N  0.44678873  0.94868193  0.72284933     0.01700
C190        C  0.40223691  0.09140752  0.87966333     0.43100
C191        C  0.55616594  0.06488516  0.68299293    -0.06600
N192        N  0.58375034  0.96068222  0.84304582    -0.25300
H193        H  0.62291206  0.09319602  0.81671472     0.07300
N194        N  0.38918686  0.06672908  0.84800297    -0.46500
H195        H  0.54096150  0.06494975  0.65189913     0.07200
C196        C  0.60558424  0.91306641  0.70884795     0.42900
C197        C  0.37868274  0.05772918  0.75097653    -0.06100
Co198      Co  0.49422482  0.99568501  0.71886604     0.73800
N199        N  0.60666427  0.06932243  0.73567624    -0.46300
C200        C  0.42362354  0.89104430  0.88461572     0.43200
N201        N  0.43256016  0.92512046  0.69147091    -0.46300
Co202      Co  0.57846071  0.00325111  0.79481549     0.73900
C203        C  0.61100888  0.92888913  0.84643381    -0.06600
C204        C  0.44234147  0.07381209  0.89812672    -0.06100
N205        N  0.42040449  0.94633127  0.75603083    -0.25700
N206        N  0.54842960  0.08242431  0.89291376    -0.46400
H207        H  0.48052036  0.91298327  0.92883458     0.07200
C208        C  0.56319683  0.92775680  0.69104906    -0.06600
Cl209      Cl  0.49849815  0.99734059  0.79794646    -0.49600
C210        C  0.59841996  0.08367028  0.69668148     0.43000
H211        H  0.35977047  0.91402294  0.76824027     0.07200
N212        N  0.61280591  0.93394243  0.74452974    -0.46300
C213        C  0.08771316  0.36674777  0.40245094     0.42800
N214        N  0.05184113  0.36200573  0.46086039     0.01700
C215        C  0.06004111  0.18685926  0.58367808    -0.06200
H216        H  0.04895976  0.15398480  0.43726072     0.07200
C217        C  0.88679671  0.23895506  0.43043516    -0.06500
Co218      Co  0.07903561  0.28892553  0.50978875     0.74200
N219        N  0.04898489  0.21356644  0.46530534    -0.25700
Co220      Co  0.99588169  0.21456189  0.50855887     0.74100
C221        C  0.89578921  0.19839991  0.41536678     0.42900
N222        N  0.92335216  0.33617681  0.45595519     0.01300
N223        N  0.94645259  0.21593281  0.46063809     0.01400
N224        N  0.10889679  0.23866878  0.58304612    -0.46500
H225        H  0.12981150  0.31091741  0.41804033     0.07200
N226        N  0.07901818  0.24292004  0.46526672     0.01700
N227        N  0.94232320  0.21704245  0.55171273     0.01500
C228        C  0.88493966  0.19891647  0.58842522     0.43100
N229        N  0.95420792  0.36459046  0.45739731    -0.25100
C230        C  0.10327367  0.33852996  0.59043950    -0.06100
N231        N  0.05460237  0.38318993  0.42537388    -0.46300
N232        N  0.92501984  0.18642560  0.57362715    -0.46500
C233        C  0.08465953  0.37323411  0.61245230     0.42800
N234        N  0.07575152  0.24505004  0.55647334     0.01700
N235        N  0.95102478  0.36557045  0.55043208    -0.25200
N236        N  0.08061967  0.33210869  0.46219035    -0.25700
N237        N  0.92003879  0.33724293  0.55051222     0.01300
H238        H  0.96979211  0.41151990  0.59563833     0.07200
H239        H  0.84798803  0.25704096  0.57179655     0.07300
N240        N  0.04607443  0.21534484  0.55598026    -0.25700
N241        N  0.91885553  0.24688537  0.45869275    -0.25300
N242        N  0.04874738  0.36354966  0.55429425     0.01700
C243        C  0.10734030  0.19796373  0.42459358     0.43100
C244        C  0.95170761  0.38673129  0.42183848    -0.06600
N245        N  0.91444927  0.24778107  0.54939602    -0.25300
H246        H  0.85718410  0.25692405  0.42571378     0.07300
N247        N  0.11403351  0.23458457  0.44182677    -0.46500
H248        H  0.97399981  0.41100020  0.41298707     0.07200
C249        C  0.91104788  0.36906300  0.60920429     0.42900
C250        C  0.10505351  0.33291744  0.42690113    -0.06100
Co251      Co  0.00139386  0.36523977  0.50577922     0.73800
N252        N  0.90054830  0.33649428  0.41990767    -0.46300
C253        C  0.10173337  0.20304420  0.60218796     0.43200
N254        N  0.05050858  0.38677692  0.58847792    -0.46300
Co255      Co  0.91863490  0.29255008  0.50362680     0.73900
C256        C  0.87830400  0.23950191  0.57222272    -0.06600
C257        C  0.06411512  0.18354614  0.44048999    -0.06100
N258        N  0.07852619  0.33449940  0.55523790    -0.25700
N259        N  0.93260982  0.18543664  0.43642257    -0.46400
H260        H  0.04510630  0.15731065  0.58771085     0.07200
C261        C  0.94725148  0.38777830  0.58567969    -0.06600
Cl262      Cl  0.99872442  0.28991289  0.50706971    -0.49600
C263        C  0.91626898  0.36789034  0.39702958     0.43000
H264        H  0.12923480  0.31828463  0.60052003     0.07200
N265        N  0.89614361  0.33758443  0.58567661    -0.46300
C266        C  0.11277099  0.81569804  0.43205605     0.42800
N267        N  0.05642947  0.79534839  0.46827970     0.01700
C268        C  0.04157455  0.61512913  0.57900820    -0.06200
H269        H  0.02706772  0.60548963  0.40296852     0.07200
C270        C  0.89724859  0.68511105  0.41270858    -0.06500
Co271      Co  0.07831225  0.71491875  0.50719661     0.74200
N272        N  0.04477848  0.64771471  0.45257161    -0.25700
Co273      Co  0.99362705  0.64496635  0.49690611     0.74100
C274        C  0.91577034  0.65273660  0.38709906     0.42900
N275        N  0.92373515  0.77201733  0.45845603     0.01300
N276        N  0.94725238  0.65270211  0.44825889     0.01400
N277        N  0.09538051  0.66245233  0.58490170    -0.46500
H278        H  0.14920558  0.75585317  0.44198613     0.07200
N279        N  0.07638792  0.67534757  0.45578328     0.01700
N280        N  0.94244452  0.64509871  0.54153605     0.01500
C281        C  0.90494723  0.63570731  0.59872807     0.43100
N282        N  0.95459609  0.80028471  0.46332799    -0.25100
C283        C  0.11074908  0.75925498  0.58610831    -0.06100
N284        N  0.07344538  0.82748135  0.44881127    -0.46300
N285        N  0.93877430  0.62129733  0.57515424    -0.46500
C286        C  0.10320285  0.79829251  0.60552920     0.42800
N287        N  0.07239741  0.66687344  0.54938380     0.01700
N288        N  0.94993876  0.79210356  0.55394793    -0.25200
N289        N  0.08363386  0.76411110  0.46700164    -0.25700
N290        N  0.91892015  0.76396499  0.54938388     0.01300
H291        H  0.95327839  0.84575902  0.59293709     0.07200
H292        H  0.86383576  0.69288665  0.58721889     0.07300
N293        N  0.04020633  0.64003866  0.54552530    -0.25700
N294        N  0.91916503  0.68311419  0.44956802    -0.25300
N295        N  0.05201075  0.78685689  0.55881530     0.01700
C296        C  0.08668583  0.64838878  0.39483100     0.43100
C297        C  0.94321477  0.83205962  0.43889694    -0.06600
N298        N  0.91393564  0.67522017  0.54225735    -0.25300
H299        H  0.87347095  0.70807598  0.40391714     0.07300
N300        N  0.10174001  0.67725800  0.42161040    -0.46500
H301        H  0.95960203  0.86123309  0.43912805     0.07200
C302        C  0.89274614  0.80240729  0.59778496     0.42900
C303        C  0.11936982  0.77388553  0.44436171    -0.06100
Co304      Co  0.00331316  0.79460708  0.51121615     0.73800
N305        N  0.89165340  0.78291651  0.43219330    -0.46300
C306        C  0.07792932  0.63050693  0.60584941     0.43200
N307        N  0.06682093  0.81431731  0.58623311    -0.46300
Co308      Co  0.91818103  0.72330250  0.49977255     0.73900
C309        C  0.88835337  0.67136301  0.57665448    -0.06600
C310        C  0.04932370  0.62834674  0.41551073    -0.06100
N311        N  0.07865305  0.75526232  0.55712710    -0.25700
N312        N  0.94665932  0.63396493  0.41117785    -0.46400
H313        H  0.01848202  0.59064749  0.58415789     0.07200
C314        C  0.93628897  0.81813540  0.58400126    -0.06600
Cl315      Cl  0.99834133  0.71981664  0.50377224    -0.49600
C316        C  0.90144911  0.82011503  0.41767403     0.43000
H317        H  0.13987395  0.74024968  0.58846907     0.07200
N318        N  0.88468811  0.76919185  0.57457698    -0.46300
C319        C  0.69914786  0.88672903  0.63487545    -0.01600
C320        C  0.72692090  0.86373951  0.66207253     0.07000
C321        C  0.71128923  0.85368740  0.70246272    -0.07600
C322        C  0.66929282  0.86575498  0.71595879     0.04400
C323        C  0.64240493  0.89018930  0.68974393    -0.14800
C324        C  0.65723319  0.89981227  0.64894821    -0.08200
C325        C  0.77190141  0.84905897  0.64931497     0.05300
C326        C  0.80369924  0.87632684  0.63313332    -0.09300
C327        C  0.84505675  0.86277124  0.61825271     0.00300
C328        C  0.85592193  0.82139852  0.62137048     0.00200
C329        C  0.82542871  0.79484092  0.64038560    -0.12800
C330        C  0.78361367  0.80791091  0.65347031     0.00600
C331        C  0.87345785  0.89123631  0.59659899     0.40000
C332        C  0.75249339  0.77773656  0.66845757     0.36600
C333        C  0.71309987  0.89795064  0.59281975     0.36300
C334        C  0.65476039  0.85294651  0.75736003     0.37100
N335        N  0.89576716  0.91419337  0.57884385    -0.43700
N336        N  0.72769121  0.75354906  0.68060520    -0.44200
N337        N  0.64332716  0.84222603  0.79041295    -0.41500
N338        N  0.72450177  0.90725987  0.55926680    -0.43000
H339        H  0.63719029  0.91922769  0.62892506     0.13200
H340        H  0.73226531  0.83659054  0.72393427     0.09700
H341        H  0.79559075  0.90814992  0.63071260     0.10800
H342        H  0.83325293  0.76289449  0.64256042     0.16600
C343        C  0.30980444  0.83746767  0.65555301    -0.01600
C344        C  0.27474274  0.86522493  0.64841784     0.07000
C345        C  0.28312325  0.90654909  0.65435467    -0.07600
C346        C  0.32445233  0.92019348  0.66933866     0.04400
C347        C  0.35846531  0.89226429  0.67906892    -0.14800
C348        C  0.35112703  0.85115569  0.67105751    -0.08200
C349        C  0.22823986  0.85162251  0.63889440     0.05300
C350        C  0.20799700  0.82351819  0.66611218    -0.09300
C351        C  0.16552033  0.80795533  0.65741545     0.00300
C352        C  0.14142469  0.82183103  0.62193687     0.00200
C353        C  0.16029014  0.85185201  0.59613878    -0.12800
C354        C  0.20348677  0.86656321  0.60406772     0.00600
C355        C  0.14821750  0.77623524  0.68418608     0.40000
C356        C  0.22252157  0.89499188  0.57449420     0.36600
C357        C  0.30380140  0.79467204  0.64848157     0.36300
C358        C  0.32986139  0.96284816  0.67736193     0.37100
N359        N  0.13457648  0.75064827  0.70552917    -0.43700
N360        N  0.23759583  0.91785203  0.55077376    -0.44200
N361        N  0.33351706  0.99709654  0.68379811    -0.41500
N362        N  0.29890052  0.76034865  0.64303954    -0.43000
H363        H  0.37688321  0.82951130  0.67894786     0.13200
H364        H  0.25650622  0.92812844  0.64949385     0.09700
H365        H  0.22604279  0.81273051  0.69366216     0.10800
H366        H  0.14259846  0.86165835  0.56796912     0.16600
C367        C  0.69566420  0.14989195  0.66696324    -0.01600
C368        C  0.71851801  0.12573608  0.63745399     0.07000
C369        C  0.69857354  0.08956694  0.62351671    -0.07600
C370        C  0.65751442  0.07646280  0.64012600     0.04400
C371        C  0.63545323  0.10007659  0.67082008    -0.14800
C372        C  0.65479206  0.13683431  0.68353418    -0.08200
C373        C  0.76358120  0.13779413  0.62186298     0.05300
C374        C  0.80010005  0.13731735  0.65000043    -0.09300
C375        C  0.84141436  0.15427680  0.63860025     0.00300
C376        C  0.84670087  0.17193048  0.59838758     0.00200
C377        C  0.81099108  0.17003683  0.56937424    -0.12800
C378        C  0.76970461  0.15335574  0.58079061     0.00600
C379        C  0.87683240  0.15581894  0.66959544     0.40000
C380        C  0.73315144  0.15545415  0.55101799     0.36600
C381        C  0.71390418  0.18807490  0.68104508     0.36300
C382        C  0.64055799  0.03731615  0.62764189     0.37100
N383        N  0.90521990  0.15712292  0.69447830    -0.43700
N384        N  0.70379779  0.15734164  0.52722747    -0.44200
N385        N  0.62716175  0.00583716  0.61773230    -0.41500
N386        N  0.72866407  0.21868900  0.69212801    -0.43000
H387        H  0.63859252  0.15478496  0.70763782     0.13200
H388        H  0.71589707  0.07085815  0.60081324     0.09700
H389        H  0.79566117  0.12534048  0.68164438     0.10800
H390        H  0.81462458  0.18370142  0.53837056     0.16600
C391        C  0.18800121  0.12401583  0.63199560    -0.01600
C392        C  0.22130844  0.14862473  0.65085543     0.07000
C393        C  0.21183018  0.18940868  0.65840249    -0.07600
C394        C  0.17084890  0.20599879  0.64697159     0.04400
C395        C  0.13898891  0.18254416  0.62461214    -0.14800
C396        C  0.14749236  0.14121861  0.61831388    -0.08200
C397        C  0.26562360  0.13272522  0.66474402     0.05300
C398        C  0.29419765  0.11383164  0.63556583    -0.09300
C399        C  0.33576543  0.09816978  0.64844020     0.00300
C400        C  0.34956173  0.10210371  0.69100768     0.00200
C401        C  0.32228985  0.12369284  0.71903472    -0.12800
C402        C  0.28045822  0.13777816  0.70684173     0.00600
C403        C  0.36226006  0.07654202  0.61807960     0.40000
C404        C  0.25220746  0.15472710  0.73914332     0.36600
C405        C  0.19427242  0.08101928  0.62746450     0.36300
C406        C  0.16214739  0.24721747  0.65946310     0.37100
N407        N  0.38342981  0.05921865  0.59361230    -0.43700
N408        N  0.22960233  0.16811052  0.76511719    -0.44200
N409        N  0.15532459  0.28000870  0.67027991    -0.41500
N410        N  0.19936934  0.04650092  0.62438294    -0.43000
H411        H  0.12324049  0.12265010  0.60170097     0.13200
H412        H  0.23662595  0.20849644  0.67364591     0.09700
H413        H  0.28359690  0.11056923  0.60289581     0.10800
H414        H  0.33249246  0.12737399  0.75180976     0.16600
C415        C  0.71442232  0.92312212  0.37091345    -0.01600
C416        C  0.73910271  0.88989369  0.35570862     0.07000
C417        C  0.71921246  0.86394153  0.32585401    -0.07600
C418        C  0.67637280  0.87142613  0.30999401     0.04400
C419        C  0.65222781  0.90521225  0.32420610    -0.14800
C420        C  0.67135043  0.93052159  0.35509935    -0.08200
C421        C  0.78439716  0.87977664  0.37229473     0.05300
C422        C  0.78917568  0.87072299  0.41539693    -0.09300
C423        C  0.82891921  0.85469463  0.43131202     0.00300
C424        C  0.86492599  0.84702839  0.40389946     0.00200
C425        C  0.86139422  0.85844786  0.36128667    -0.12800
C426        C  0.82158235  0.87501173  0.34538991     0.00600
C427        C  0.83105703  0.84415018  0.47560994     0.40000
C428        C  0.81932342  0.88626734  0.30129720     0.36600
C429        C  0.73338830  0.95106279  0.40120582     0.36300
C430        C  0.65776892  0.84408033  0.27888666     0.37100
N431        N  0.83268956  0.83557334  0.51106167    -0.43700
N432        N  0.81750358  0.89547263  0.26600794    -0.44200
N433        N  0.64269379  0.82208760  0.25413505    -0.41500
N434        N  0.74863306  0.97338677  0.42553777    -0.43000
H435        H  0.65362654  0.95728371  0.36521577     0.13200
H436        H  0.73730210  0.83772104  0.31482824     0.09700
H437        H  0.76096568  0.87423563  0.43634652     0.10800
H438        H  0.88884386  0.85259859  0.34001977     0.16600
C439        C  0.22941682  0.85569908  0.43793587    -0.01600
C440        C  0.23434795  0.87357317  0.39772644     0.07000
C441        C  0.19640561  0.87846651  0.37183685    -0.07600
C442        C  0.15475103  0.86309070  0.38417451     0.04400
C443        C  0.15074180  0.84283514  0.42308675    -0.14800
C444        C  0.18771454  0.84114366  0.45046986    -0.08200
C445        C  0.27920947  0.88155690  0.37955161     0.05300
C446        C  0.29243889  0.85840326  0.34468716    -0.09300
C447        C  0.33355955  0.86509923  0.32522740     0.00300
C448        C  0.36261338  0.89540635  0.34066211     0.00200
C449        C  0.35031588  0.91745475  0.37672251    -0.12800
C450        C  0.30888639  0.91087725  0.39613579     0.00600
C451        C  0.34496204  0.84072847  0.28903521     0.40000
C452        C  0.29666448  0.93596972  0.43152758     0.36600
C453        C  0.26732716  0.84792408  0.46498089     0.36300
C454        C  0.11765375  0.86521998  0.35503181     0.37100
N455        N  0.35392575  0.82077942  0.26028984    -0.43700
N456        N  0.28703487  0.95603524  0.46000375    -0.44200
N457        N  0.08784886  0.86675192  0.33172203    -0.41500
N458        N  0.29766141  0.84144082  0.48663675    -0.43000
H459        H  0.18479725  0.82542735  0.48047948     0.13200
H460        H  0.19996155  0.89211187  0.34083512     0.09700
H461        H  0.27020067  0.83526969  0.33227876     0.10800
H462        H  0.37180427  0.94158393  0.38813805     0.16600
C463        C  0.79620283  0.12858924  0.41804457    -0.01600
C464        C  0.77602539  0.13670689  0.37856859     0.07000
C465        C  0.79839262  0.16143237  0.34947388    -0.07600
C466        C  0.83945384  0.17934692  0.35979803     0.04400
C467        C  0.85923788  0.17214647  0.39965785    -0.14800
C468        C  0.83763159  0.14615645  0.42823472    -0.08200
C469        C  0.73130601  0.12043951  0.36685865     0.05300
C470        C  0.69407803  0.14600390  0.36863039    -0.09300
C471        C  0.65250815  0.13349230  0.35247472     0.00300
C472        C  0.64774671  0.09476936  0.33452173     0.00200
C473        C  0.68451897  0.06854060  0.33468275    -0.12800
C474        C  0.72611543  0.08114777  0.35033276     0.00600
C475        C  0.61609086  0.16177505  0.35176897     0.40000
C476        C  0.76373925  0.05441753  0.34629061     0.36600
C477        C  0.77390666  0.10405590  0.44926084     0.36300
C478        C  0.86006661  0.20596582  0.32938091     0.37100
N479        N  0.58682271  0.18439153  0.35093406    -0.43700
N480        N  0.79400866  0.03317828  0.34276536    -0.44200
N481        N  0.87634916  0.22716927  0.30473357    -0.41500
N482        N  0.75591769  0.08446258  0.47429181    -0.43000
H483        H  0.85180025  0.14153695  0.45948945     0.13200
H484        H  0.78314892  0.16752185  0.31896644     0.09700
H485        H  0.69800912  0.17637616  0.38100928     0.10800
H486        H  0.68133412  0.03887173  0.32032756     0.16600
C487        C  0.27758156  0.08309708  0.36427890    -0.01600
C488        C  0.27405112  0.12397091  0.37660484     0.07000
C489        C  0.31263787  0.14845058  0.37586221    -0.07600
C490        C  0.35315270  0.13367367  0.36003001     0.04400
C491        C  0.35576786  0.09349303  0.34566175    -0.14800
C492        C  0.31816455  0.06829008  0.34932795    -0.08200
C493        C  0.22995939  0.14201553  0.38764695     0.05300
C494        C  0.20441998  0.12497578  0.42038891    -0.09300
C495        C  0.16263721  0.14079772  0.43112096     0.00300
C496        C  0.14573392  0.17453215  0.40900621     0.00200
C497        C  0.17105487  0.19142792  0.37624522    -0.12800
C498        C  0.21253226  0.17542181  0.36520864     0.00600
C499        C  0.13936065  0.12362937  0.46676822     0.40000
C500        C  0.23640995  0.19392082  0.33065250     0.36600
C501        C  0.23928070  0.05649599  0.36340518     0.36300
C502        C  0.39041178  0.16103425  0.35563515     0.37100
N503        N  0.12078827  0.10994067  0.49543002    -0.43700
N504        N  0.25552953  0.20895614  0.30307379    -0.44200
N505        N  0.42023303  0.18301515  0.35187615    -0.41500
N506        N  0.20856476  0.03522452  0.36268908    -0.43000
H507        H  0.31978372  0.03738215  0.33796475     0.13200
H508        H  0.31056589  0.17972964  0.38586033     0.09700
H509        H  0.21761114  0.09968111  0.43822130     0.10800
H510        H  0.15876190  0.21795932  0.35981494     0.16600
C511        C  0.57937434  0.80161918  0.07698031    -0.01600
C512        C  0.61361857  0.78200675  0.09950869     0.07000
C513        C  0.64059267  0.80469321  0.12706420    -0.07600
C514        C  0.63282832  0.84603900  0.13363291     0.04400
C515        C  0.59658554  0.86536659  0.11304308    -0.14800
C516        C  0.57104974  0.84270535  0.08391505    -0.08200
C517        C  0.62087717  0.73769347  0.09518141     0.05300
C518        C  0.63664464  0.72229677  0.05675509    -0.09300
C519        C  0.64114390  0.68057092  0.05062824     0.00300
C520        C  0.62811490  0.65335115  0.08273886     0.00200
C521        C  0.61418899  0.66873017  0.12181776    -0.12800
C522        C  0.61088464  0.71059600  0.12836874     0.00600
C523        C  0.66208340  0.66656287  0.01237809     0.40000
C524        C  0.59660212  0.72512450  0.16913771     0.36600
C525        C  0.55147777  0.77979157  0.04743666     0.36300
C526        C  0.66304894  0.86752236  0.16137621     0.37100
N527        N  0.67998826  0.65540529  0.98227029    -0.43700
N528        N  0.58551830  0.73696837  0.20186536    -0.44200
N529        N  0.68779919  0.88439440  0.18341467    -0.41500
N530        N  0.52954888  0.76207803  0.02357158    -0.43000
H531        H  0.54375390  0.85662262  0.06693454     0.13200
H532        H  0.66770003  0.78992201  0.14369464     0.09700
H533        H  0.64572570  0.74300599  0.03163209     0.10800
H534        H  0.60537138  0.64802164  0.14703968     0.16600
C535        C  0.54852138  0.21566527  0.09659581    -0.01600
C536        C  0.58939336  0.23556005  0.10512456     0.07000
C537        C  0.62459377  0.21284453  0.12246715    -0.07600
C538        C  0.61985429  0.17126629  0.13065700     0.04400
C539        C  0.57926853  0.15136401  0.12113967    -0.14800
C540        C  0.54402462  0.17421077  0.10427280    -0.08200
C541        C  0.59611169  0.27994822  0.09768155     0.05300
C542        C  0.61085643  0.30445930  0.13145056    -0.09300
C543        C  0.61875178  0.34605536  0.12593774     0.00300
C544        C  0.61245984  0.36394552  0.08583428     0.00200
C545        C  0.59754920  0.33951684  0.05220203    -0.12800
C546        C  0.58931726  0.29818521  0.05767302     0.00600
C547        C  0.63164688  0.36992286  0.16224818     0.40000
C548        C  0.57351268  0.27572759  0.02143752     0.36600
C549        C  0.51003653  0.23690369  0.08085333     0.36300
C550        C  0.65736017  0.14975423  0.14821923     0.37100
N551        N  0.64167099  0.38913347  0.19141032    -0.43700
N552        N  0.55915351  0.25842827  0.99259248    -0.44200
N553        N  0.68736588  0.13249312  0.16240786    -0.41500
N554        N  0.47930605  0.25368293  0.06753369    -0.43000
H555        H  0.51210690  0.15998292  0.09783959     0.13200
H556        H  0.65609039  0.22765880  0.12945597     0.09700
H557        H  0.61571044  0.29110156  0.16244055     0.10800
H558        H  0.59286888  0.35249930  0.02103676     0.16600
C559        C  0.64276459  0.71295556  0.87011741    -0.01600
C560        C  0.60896361  0.73285197  0.89253428     0.07000
C561        C  0.57837019  0.71006990  0.91597585    -0.07600
C562        C  0.58254672  0.66799070  0.91926533     0.04400
C563        C  0.61873637  0.64811749  0.89958086    -0.14800
C564        C  0.64760178  0.67108976  0.87398261    -0.08200
C565        C  0.60511939  0.77746129  0.89174922     0.05300
C566        C  0.57188668  0.79510764  0.86669810    -0.09300
C567        C  0.56856966  0.83716544  0.86356967     0.00300
C568        C  0.59826952  0.86217908  0.88658725     0.00200
C569        C  0.63123545  0.84458799  0.91202075    -0.12800
C570        C  0.63498042  0.80242771  0.91461992     0.00600
C571        C  0.53479343  0.85405300  0.83614987     0.40000
C572        C  0.66977458  0.78533069  0.94066173     0.36600
C573        C  0.67265251  0.73495603  0.84271229     0.34500
C574        C  0.54884797  0.64631476  0.94264083     0.37100
N575        N  0.50783566  0.86769062  0.81416400    -0.43700
N576        N  0.69777150  0.77151101  0.96130581    -0.44200
N577        N  0.52143013  0.62918054  0.96109708    -0.41500
N578        N  0.69633098  0.75257794  0.82050143    -0.43000
H579        H  0.67477133  0.65674923  0.85747198     0.13200
H580        H  0.55143230  0.72531207  0.93213197     0.09700
H581        H  0.54904632  0.77596584  0.84898609     0.10800
H582        H  0.65420839  0.86375470  0.92952988     0.16600
C583        C  0.57476716  0.30469209  0.89805127    -0.01600
C584        C  0.61029664  0.27678625  0.89928258     0.07000
C585        C  0.65378388  0.29123618  0.90551624    -0.07600
C586        C  0.66224830  0.33247232  0.91119817     0.04400
C587        C  0.62675316  0.36043320  0.90968774    -0.14800
C588        C  0.58320280  0.34606052  0.90367067    -0.08200
C589        C  0.60281103  0.23256835  0.89378912     0.05300
C590        C  0.58233331  0.21869645  0.85644903    -0.09300
C591        C  0.57425697  0.17749343  0.85002274     0.00300
C592        C  0.58569510  0.14944891  0.88187499     0.00200
C593        C  0.60644731  0.16300634  0.91897639    -0.12800
C594        C  0.61626965  0.20405570  0.92468525     0.00600
C595        C  0.55455110  0.16474940  0.81035763     0.40000
C596        C  0.64109339  0.21571711  0.96202772     0.36600
C597        C  0.52938416  0.29164745  0.89107446     0.36300
C598        C  0.70738102  0.34458791  0.92100434     0.37100
N599        N  0.53915432  0.15452348  0.77843355    -0.43700
N600        N  0.66136589  0.22480354  0.99182149    -0.44200
N601        N  0.74365746  0.35361931  0.92933923    -0.41500
N602        N  0.49314244  0.28111250  0.88485880    -0.43000
H603        H  0.55579100  0.36727613  0.90270637     0.13200
H604        H  0.68130193  0.27013300  0.90616117     0.09700
H605        H  0.57328354  0.24011423  0.83193948     0.10800
H606        H  0.61656169  0.14126623  0.94280190     0.16600
C607        C  0.87807702  0.58834016  0.70484142    -0.01600
C608        C  0.88838886  0.62025860  0.73299949     0.07000
C609        C  0.90775394  0.65570048  0.71708781    -0.07600
C610        C  0.91520309  0.66033935  0.67361695     0.04400
C611        C  0.90201663  0.62958930  0.64507068    -0.14800
C612        C  0.88470138  0.59328671  0.66113389    -0.08200
C613        C  0.87507440  0.61876662  0.77828401     0.05300
C614        C  0.90128109  0.59791242  0.80796080    -0.09300
C615        C  0.88640941  0.59213010  0.84973337     0.00300
C616        C  0.84434095  0.60710816  0.86204734     0.00200
C617        C  0.81999708  0.63054129  0.83296794    -0.12800
C618        C  0.83489140  0.63642046  0.79153341     0.00600
C619        C  0.91358460  0.56846714  0.87806015     0.40000
C620        C  0.80693914  0.65849603  0.76232826     0.36600
C621        C  0.85967695  0.55070455  0.72008444     0.36300
C622        C  0.93732003  0.69659481  0.65910067     0.37100
N623        N  0.93572934  0.54964938  0.90066427    -0.43700
N624        N  0.78455326  0.67612262  0.73888844    -0.44200
N625        N  0.95545850  0.72536719  0.64730170    -0.41500
N626        N  0.84519314  0.52047600  0.73242355    -0.43000
H627        H  0.87537631  0.56923200  0.63950714     0.13200
H628        H  0.91637512  0.68002616  0.73863133     0.09700
H629        H  0.93255918  0.58479350  0.79799502     0.10800
H630        H  0.78758294  0.64208557  0.84185467     0.16600
C631        C  0.89605122  0.68238264  0.27327524    -0.01600
C632        C  0.89611077  0.64464673  0.25262756     0.07000
C633        C  0.90801860  0.60993100  0.27551648    -0.07600
C634        C  0.91641928  0.61196137  0.31917057     0.04400
C635        C  0.91221501  0.64922984  0.34051409    -0.14800
C636        C  0.90361633  0.68432473  0.31686028    -0.08200
C637        C  0.87644190  0.63965113  0.20976258     0.05300
C638        C  0.90228614  0.62485721  0.17626653    -0.09300
C639        C  0.88229462  0.61389297  0.13752058     0.00300
C640        C  0.83554911  0.61689565  0.13259742     0.00200
C641        C  0.81092481  0.63560836  0.16475262    -0.12800
C642        C  0.83055190  0.64609157  0.20325523     0.00600
C643        C  0.91031749  0.59876351  0.10420500     0.40000
C644        C  0.80195490  0.66015523  0.23679474     0.36600
C645        C  0.88658411  0.71929065  0.25063292     0.36300
C646        C  0.92654700  0.57508484  0.34157265     0.37100
N647        N  0.93308972  0.58716628  0.07742873    -0.43700
N648        N  0.77907407  0.67134826  0.26367302    -0.44200
N649        N  0.93476786  0.54549085  0.35943053    -0.41500
N650        N  0.87887228  0.74890266  0.23261434    -0.43000
H651        H  0.90217394  0.71348216  0.33246809     0.13200
H652        H  0.90824340  0.58081012  0.25969999     0.09700
H653        H  0.93776602  0.62063811  0.18090898     0.10800
H654        H  0.77534147  0.63975697  0.16098741     0.16600
C655        C  0.89572641  0.34061774  0.72414205    -0.01600
C656        C  0.89109499  0.37867929  0.74358862     0.07000
C657        C  0.89546951  0.41377304  0.71906403    -0.07600
C658        C  0.90232264  0.41133634  0.67530562     0.04400
C659        C  0.90397963  0.37316719  0.65533664    -0.14800
C660        C  0.90131115  0.33807891  0.68025315    -0.08200
C661        C  0.87603555  0.38243642  0.78807639     0.05300
C662        C  0.90360684  0.40088111  0.81859811    -0.09300
C663        C  0.88759501  0.40935902  0.85934677     0.00300
C664        C  0.84293290  0.39988125  0.86950250     0.00200
C665        C  0.81675776  0.37878738  0.83978246    -0.12800
C666        C  0.83248061  0.37074593  0.79924916     0.00600
C667        C  0.91673659  0.43016012  0.88862356     0.40000
C668        C  0.80160851  0.35447560  0.76833550     0.36600
C669        C  0.89551947  0.30396159  0.74892019     0.36300
C670        C  0.90575452  0.44843081  0.65147040     0.37100
N671        N  0.94052667  0.44659254  0.91194819    -0.43700
N672        N  0.77678341  0.34186549  0.74344213    -0.44200
N673        N  0.90868940  0.47819478  0.63244102    -0.41500
N674        N  0.89578377  0.27479914  0.76911967    -0.43000
H675        H  0.90432491  0.30862065  0.66552528     0.13200
H676        H  0.89205754  0.44311517  0.73396086     0.09700
H677        H  0.93698122  0.41030692  0.81001212     0.10800
H678        H  0.78228516  0.37170748  0.84699859     0.16600
C679        C  0.83694770  0.36704534  0.20283650    -0.01600
C680        C  0.87230529  0.39027004  0.21986118     0.07000
C681        C  0.89226032  0.42011759  0.19453328    -0.07600
C682        C  0.87565486  0.42881820  0.15391789     0.04400
C683        C  0.83860350  0.40705318  0.13785822    -0.14800
C684        C  0.82055816  0.37554959  0.16222644    -0.08200
C685        C  0.88639446  0.38584088  0.26495903     0.05300
C686        C  0.90578690  0.34952743  0.27859283    -0.09300
C687        C  0.91682060  0.34354044  0.32133958     0.00300
C688        C  0.90759380  0.37390556  0.35137145     0.00200
C689        C  0.88995676  0.41076982  0.33759216    -0.12800
C690        C  0.87928177  0.41695997  0.29481861     0.00600
C691        C  0.93962922  0.30694152  0.33335682     0.40000
C692        C  0.85975657  0.45504231  0.28262078     0.36600
C693        C  0.81458519  0.33648820  0.22762596     0.36300
C694        C  0.89457754  0.46261986  0.13128400     0.37100
N695        N  0.95853123  0.27792299  0.34294410    -0.43700
N696        N  0.84424923  0.48564809  0.27293548    -0.44200
N697        N  0.90965294  0.48985210  0.11328420    -0.41500
N698        N  0.79651183  0.31205791  0.24743835    -0.43000
H699        H  0.79163417  0.35915244  0.15049730     0.13200
H700        H  0.91954342  0.43797829  0.20737676     0.09700
H701        H  0.91236113  0.32587701  0.25574652     0.10800
H702        H  0.88361702  0.43446689  0.36046185     0.16600
C703        C  0.37298105  0.78600101  0.87267248    -0.01600
C704        C  0.40623514  0.76067255  0.89009365     0.07000
C705        C  0.44528980  0.77889855  0.90584247    -0.07600
C706        C  0.44997279  0.82088209  0.90848777     0.04400
C707        C  0.41767636  0.84635963  0.88963917    -0.14800
C708        C  0.37955773  0.82809977  0.87156744    -0.08200
C709        C  0.40036971  0.71575442  0.89507045     0.05300
C710        C  0.38540203  0.69160525  0.86101036    -0.09300
C711        C  0.37931434  0.64959066  0.86575353     0.00300
C712        C  0.38964602  0.63085285  0.90472614     0.00200
C713        C  0.40524838  0.65474492  0.93809005    -0.12800
C714        C  0.41034744  0.69625015  0.93383048     0.00600
C715        C  0.36298102  0.62641786  0.83018362     0.40000
C716        C  0.42628722  0.71724133  0.97062045     0.36600
C717        C  0.33128925  0.77004466  0.85671222     0.36300
C718        C  0.48751163  0.83570769  0.93258861     0.37100
N719        N  0.34975129  0.60783978  0.80170764    -0.43700
N720        N  0.44079162  0.73235522  0.00053512    -0.44200
N721        N  0.51754675  0.84609999  0.95304431    -0.41500
N722        N  0.29786806  0.75745362  0.84372846    -0.43000
H723        H  0.35416626  0.84690264  0.85717975     0.13200
H724        H  0.47203441  0.76011845  0.91779036     0.09700
H725        H  0.37873572  0.70540990  0.83055736     0.10800
H726        H  0.41244448  0.64126460  0.96861537     0.16600
C727        C  0.39760774  0.28010740  0.93226798    -0.01600
C728        C  0.37588157  0.26285504  0.89694159     0.07000
C729        C  0.35125650  0.28781517  0.86982529    -0.07600
C730        C  0.34735913  0.32936285  0.87788294     0.04400
C731        C  0.36832589  0.34667678  0.91400352    -0.14800
C732        C  0.39375071  0.32148872  0.94049975    -0.08200
C733        C  0.37807076  0.21861959  0.88881788     0.05300
C734        C  0.36014474  0.19207030  0.91900483    -0.09300
C735        C  0.36638130  0.15030842  0.91575990     0.00300
C736        C  0.39052494  0.13450890  0.88160969     0.00200
C737        C  0.40619104  0.16066074  0.84997563    -0.12800
C738        C  0.40012732  0.20254281  0.85329273     0.00600
C739        C  0.34779808  0.12421182  0.94777930     0.40000
C740        C  0.41838381  0.22839198  0.82086592     0.36600
C741        C  0.42502588  0.25584986  0.95989993     0.36300
C742        C  0.32177932  0.35315068  0.84824981     0.37100
N743        N  0.33264310  0.10324773  0.97328402    -0.43700
N744        N  0.43289962  0.24902647  0.79473317    -0.44200
N745        N  0.30116245  0.37192439  0.82432602    -0.41500
N746        N  0.44700944  0.23582091  0.98142618    -0.43000
H747        H  0.41034016  0.33377677  0.96816346     0.13200
H748        H  0.33461702  0.27467738  0.84252299     0.09700
H749        H  0.34209791  0.20417180  0.94569367     0.10800
H750        H  0.42450803  0.14844120  0.82342344     0.16600
C751        C  0.37637701  0.78905473  0.14015887    -0.01600
C752        C  0.39579138  0.77334218  0.10324823     0.07000
C753        C  0.41613606  0.80001708  0.07473631    -0.07600
C754        C  0.41827163  0.84156325  0.08274363     0.04400
C755        C  0.40018373  0.85737553  0.12047997    -0.14800
C756        C  0.37849943  0.83067676  0.14839852    -0.08200
C757        C  0.39544455  0.72914459  0.09424798     0.05300
C758        C  0.36303180  0.71311581  0.06678377    -0.09300
C759        C  0.35966002  0.67127057  0.06012494     0.00300
C760        C  0.38899827  0.64470590  0.08123775     0.00200
C761        C  0.42234057  0.66081058  0.10763772    -0.12800
C762        C  0.42579576  0.70273051  0.11415874     0.00600
C763        C  0.32515323  0.65605496  0.03227770     0.40000
C764        C  0.45990048  0.71812927  0.14224834     0.36600
C765        C  0.35471335  0.76288289  0.17034501     0.36300
C766        C  0.43911501  0.86688187  0.05120854     0.37100
N767        N  0.29760684  0.64361594  0.01000046    -0.43700
N768        N  0.48698656  0.73086949  0.16481462    -0.44200
N769        N  0.45572972  0.88700234  0.02577272    -0.41500
N770        N  0.33748003  0.74183391  0.19455638    -0.43000
H771        H  0.36400518  0.84195980  0.17727876     0.13200
H772        H  0.43105222  0.78878291  0.04650148     0.09700
H773        H  0.33979544  0.73328355  0.05119783     0.10800
H774        H  0.44472712  0.64058472  0.12423414     0.16600
C775        C  0.41845591  0.30373158  0.13380587    -0.01600
C776        C  0.38353012  0.27551144  0.12621937     0.07000
C777        C  0.34203536  0.29016987  0.11248790    -0.07600
C778        C  0.33611139  0.33089893  0.10245531     0.04400
C779        C  0.37186994  0.35834635  0.10724301    -0.14800
C780        C  0.41256678  0.34458184  0.12336332    -0.08200
C781        C  0.38944309  0.23072846  0.13017260     0.05300
C782        C  0.40750299  0.21417002  0.16743453    -0.09300
C783        C  0.41318454  0.17235722  0.17176528     0.00300
C784        C  0.39864302  0.14608905  0.13928657     0.00200
C785        C  0.38112704  0.16224463  0.10197515    -0.12800
C786        C  0.37656519  0.20404975  0.09702974     0.00600
C787        C  0.43610837  0.15727952  0.20880262     0.40000
C788        C  0.35851709  0.21855588  0.05745312     0.36600
C789        C  0.46052239  0.29219093  0.15245492     0.36300
C790        C  0.29357035  0.34325770  0.08536482     0.37100
N791        N  0.45507585  0.14515855  0.23810579    -0.43700
N792        N  0.34329460  0.23027235  0.02610240    -0.44200
N793        N  0.25951692  0.35299020  0.07149802    -0.41500
N794        N  0.49415543  0.28341369  0.16791080    -0.43000
H795        H  0.43964314  0.36592524  0.12829832     0.13200
H796        H  0.31423708  0.26942582  0.10855819     0.09700
H797        H  0.41709336  0.23381376  0.19337241     0.10800
H798        H  0.37070340  0.14208191  0.07668966     0.16600
C799        C  0.13339693  0.56532551  0.79791248    -0.01600
C800        C  0.12537581  0.60474741  0.78266150     0.07000
C801        C  0.13347680  0.63793605  0.80956825    -0.07600
C802        C  0.15277886  0.63246764  0.84966640     0.04400
C803        C  0.16202399  0.59320021  0.86409374    -0.14800
C804        C  0.15057690  0.55989842  0.83867373    -0.08200
C805        C  0.11257912  0.61189145  0.73766812     0.05300
C806        C  0.07411540  0.59344898  0.72110327    -0.09300
C807        C  0.06251697  0.59737321  0.67824302     0.00300
C808        C  0.08913076  0.62156012  0.65103224     0.00200
C809        C  0.12762899  0.64001022  0.66805847    -0.12800
C810        C  0.13976276  0.63499174  0.71052336     0.00600
C811        C  0.02345611  0.57562061  0.66411464     0.40000
C812        C  0.18134285  0.65244011  0.72502806     0.36600
C813        C  0.12907097  0.53032516  0.77084837     0.36300
C814        C  0.16599536  0.66745530  0.87403370     0.37100
N815        N  0.99221685  0.55729501  0.65401136    -0.43700
N816        N  0.21467239  0.66622348  0.73682274    -0.44200
N817        N  0.17698973  0.69544454  0.89348064    -0.41500
N818        N  0.12614568  0.50245804  0.74886536    -0.43000
H819        H  0.15866355  0.52962036  0.84938104     0.13200
H820        H  0.12722441  0.66830787  0.79817634     0.09700
H821        H  0.05328520  0.57533906  0.74179177     0.10800
H822        H  0.14893240  0.65823904  0.64795536     0.16600
C823        C  0.18223408  0.64222323  0.20818614    -0.01600
C824        C  0.13827994  0.63173530  0.21922394     0.07000
C825        C  0.10983480  0.61534984  0.18818287    -0.07600
C826        C  0.12548205  0.60669644  0.14734797     0.04400
C827        C  0.17046713  0.61496604  0.13704200    -0.14800
C828        C  0.19760940  0.63436519  0.16735383    -0.08200
C829        C  0.12258830  0.63564014  0.26360080     0.05300
C830        C  0.11833687  0.67423911  0.28132687    -0.09300
C831        C  0.10632403  0.67915042  0.32379185     0.00300
C832        C  0.09895221  0.64486450  0.34960166     0.00200
C833        C  0.10195333  0.60624540  0.33147600    -0.12800
C834        C  0.11382694  0.60138413  0.28891496     0.00600
C835        C  0.09914656  0.71968738  0.33903296     0.40000
C836        C  0.11823021  0.56097545  0.27225161     0.36600
C837        C  0.21341144  0.65774049  0.23922235     0.36300
C838        C  0.09541285  0.58671776  0.11830876     0.37100
N839        N  0.09285862  0.75238512  0.35041066    -0.43700
N840        N  0.12178613  0.52863432  0.25879236    -0.44200
N841        N  0.07081098  0.57072010  0.09541384    -0.41500
N842        N  0.23853301  0.66984890  0.26412357    -0.43000
H843        H  0.23224670  0.64071944  0.16006898     0.13200
H844        H  0.07582412  0.60763774  0.19651374     0.09700
H845        H  0.12430503  0.70064516  0.26177480     0.10800
H846        H  0.09578605  0.57975026  0.35083566     0.16600
C847        C  0.05992891  0.37710094  0.72964709    -0.01600
C848        C  0.10175018  0.38813161  0.74678249     0.07000
C849        C  0.13717735  0.39635492  0.71914000    -0.07600
C850        C  0.13180881  0.39291456  0.67524380     0.04400
C851        C  0.09017141  0.38162932  0.65813359    -0.14800
C852        C  0.05425892  0.37450591  0.68555555    -0.08200
C853        C  0.11091961  0.38973366  0.79317312     0.05300
C854        C  0.14262242  0.36306791  0.80988813    -0.09300
C855        C  0.16061451  0.36904642  0.85033898     0.00300
C856        C  0.14737831  0.40255289  0.87479354     0.00200
C857        C  0.11238609  0.42690498  0.85990490    -0.12800
C858        C  0.09388598  0.42056084  0.81940074     0.00600
C859        C  0.19465108  0.34172518  0.86522323     0.40000
C860        C  0.05992443  0.44779192  0.80427705     0.36600
C861        C  0.02342551  0.36563465  0.75662383     0.36300
C862        C  0.16941654  0.40150540  0.64836239     0.37100
N863        N  0.22180023  0.31979344  0.87729523    -0.43700
N864        N  0.03253919  0.46944389  0.79210618    -0.44200
N865        N  0.19958651  0.40861130  0.62692155    -0.41500
N866        N  0.99440415  0.35592968  0.77835253    -0.43000
H867        H  0.02234189  0.36506662  0.67260944     0.13200
H868        H  0.16939701  0.40497435  0.73203210     0.09700
H869        H  0.15520492  0.33879564  0.79026995     0.10800
H870        H  0.10206554  0.45286545  0.87830108     0.16600
C871        C  0.10272204  0.34200361  0.28680400    -0.01600
C872        C  0.10744188  0.38070333  0.26858309     0.07000
C873        C  0.10183231  0.41502099  0.29418315    -0.07600
C874        C  0.09430911  0.41122303  0.33776625     0.04400
C875        C  0.09280805  0.37251476  0.35636000    -0.14800
C876        C  0.09605560  0.33822914  0.33038136    -0.08200
C877        C  0.12286537  0.38622644  0.22426569     0.05300
C878        C  0.09712449  0.40890767  0.19567218    -0.09300
C879        C  0.11377974  0.41948327  0.15566313     0.00300
C880        C  0.15694678  0.40701895  0.14381221     0.00200
C881        C  0.18148824  0.38259252  0.17165536    -0.12800
C882        C  0.16524742  0.37258387  0.21163484     0.00600
C883        C  0.08743950  0.44587895  0.12931367     0.40000
C884        C  0.19440534  0.35118574  0.24034196     0.36600
C885        C  0.10517261  0.30573945  0.26151644     0.36300
C886        C  0.09088706  0.44740638  0.36305402     0.37100
N887        N  0.06612806  0.46711771  0.10841709    -0.43700
N888        N  0.21764566  0.33397931  0.26337138    -0.44200
N889        N  0.08825357  0.47640989  0.38333570    -0.41500
N890        N  0.10740984  0.27665617  0.24132117    -0.43000
H891        H  0.09337195  0.30828302  0.34413451     0.13200
H892        H  0.10523430  0.44487259  0.28038289     0.09700
H893        H  0.06474133  0.41982389  0.20537690     0.10800
H894        H  0.21493910  0.37342303  0.16315693     0.16600
loop_ 
_geom_bond_atom_site_label_1 
_geom_bond_atom_site_label_2 
_geom_bond_distance 
_geom_bond_site_symmetry_2 
_ccdc_geom_bond_type 
C1           N19   1.353       .  A
C1           C38   1.453       .  S
C1          C779   1.474       .  S
N2           N19   1.327       .  A
N2           N24   1.317       .  A
N2          Co39   2.092       .  S
C3           N28   1.348       .  A
C3           C41   1.475       .  S
C3           H48   1.080       .  S
H4           C45   1.081       .  S
C5           N29   1.332       .  A
C5            C9   1.452       .  S
C5           H34   1.081       .  S
Co6          N24   2.067       .  S
Co6          N14   2.078       .  S
Co6          N46   2.079       .  S
Co6          N22   2.066       .  S
Co6         Cl50   2.417       .  S
N7           C45   1.348       .  A
N7           N14   1.322       .  A
N7           Co8   2.101       .  S
Co8          N11   2.107   1_554  S
Co8          N28   2.103       .  S
Co8          N15   2.095   1_554  S
Co8         Cl50   2.488       .  S
C9           N47   1.358       .  A
C9          C856   1.482       .  S
N10          N17   1.318       .  A
N10          N40   1.324       .  A
N10         Co43   2.083       .  S
N11          N29   1.320       .  A
N11          N47   1.331       .  A
N12          C41   1.344       .  A
N12          N22   1.317       .  A
H13          C38   1.081       .  S
N14          N35   1.318       .  A
N15          N33   1.320       .  A
N15          N20   1.327       .  A
C16          N20   1.355       .  A
C16          C44   1.455       .  S
C16         C803   1.471       .  S
N17          C32   1.342       .  A
N17         Co39   2.090   1_556  S
C18          N46   1.339       .  A
C18          C21   1.455       .  S
C18          H52   1.081       .  S
C21          N42   1.355       .  A
C21         C760   1.481       .  S
N22          N28   1.319       .  A
N23          C49   1.336       .  A
N23          N25   1.315       .  A
N23         Co39   2.078   1_556  S
N24          C38   1.337       .  A
N25          N53   1.325       .  A
N25         Co43   2.073       .  S
H26          C49   1.081       .  S
H27          C44   1.082       .  S
N29         Co43   2.070       .  S
N30          N42   1.330       .  A
N30          N46   1.318       .  A
N30         Co39   2.106       .  S
C31          N35   1.344       .  A
C31          C45   1.471       .  S
C31         C880   1.481       .  S
C32          C51   1.468       .  S
C32          H36   1.081       .  S
N33          C44   1.332       .  A
N33         Co43   2.074       .  S
C37          N53   1.350       .  A
C37          C49   1.465       .  S
C37         C712   1.482       .  S
Co39        Cl50   2.482       .  S
N40          C51   1.350       .  A
C41         C827   1.487       .  S
Co43        Cl50   2.414   1_556  S
C51         C731   1.492       .  S
C54          N72   1.358       .  A
C54          C91   1.452       .  S
C54         C683   1.483       .  S
N55          N72   1.330       .  A
N55          N77   1.322       .  A
N55         Co92   2.113       .  S
C56          N81   1.343       .  A
C56          C94   1.461       .  S
C56         H101   1.079       .  S
H57          C98   1.081       .  S
C58          N82   1.338       .  A
C58          C62   1.454       .  S
C58          H87   1.080       .  S
Co59         N77   2.070       .  S
Co59         N67   2.096       .  S
Co59         N99   2.075       .  S
Co59         N75   2.088       .  S
Co59       Cl103   2.418   1_554  S
N60          C98   1.338       .  A
N60          N67   1.316       .  A
N60         Co61   2.076   1_554  S
Co61         N64   2.094       .  S
Co61         N81   2.090   1_556  S
Co61         N68   2.084       .  S
Co61       Cl103   2.478       .  S
C62         N100   1.352       .  A
C62         C587   1.479       .  S
N63          N70   1.320       .  A
N63          N93   1.315       .  A
N63         Co96   2.073       .  S
N64          N82   1.318       .  A
N64         N100   1.327       .  A
N65          C94   1.349       .  A
N65          N75   1.326       .  A
H66          C91   1.082       .  S
N67          N88   1.329       .  A
N68          N86   1.315       .  A
N68          N73   1.324       .  A
C69          N73   1.352       .  A
C69          C97   1.465       .  S
C69         C563   1.492       .  S
N70          C85   1.348       .  A
N70         Co92   2.093   1_556  S
C71          N99   1.329       .  A
C71          C74   1.456       .  S
C71         H105   1.081       .  S
C74          N95   1.358       .  A
C74         C640   1.488       .  S
N75          N81   1.318       .  A
N76         C102   1.351       .  A
N76          N78   1.321       .  A
N76         Co92   2.118   1_556  S
N77          C91   1.334       .  A
N78         N106   1.317       .  A
N78         Co96   2.066       .  S
H79         C102   1.081       .  S
H80          C97   1.080       .  S
N82         Co96   2.073       .  S
N83          N95   1.330       .  A
N83          N99   1.321       .  A
N83         Co92   2.100       .  S
C84          N88   1.355       .  A
C84          C98   1.459       .  S
C84         C544   1.489       .  S
C85         C104   1.472       .  S
C85          H89   1.081       .  S
N86          C97   1.340       .  A
N86         Co96   2.077       .  S
C90         N106   1.342       .  A
C90         C102   1.478       .  S
C90         C616   1.487       .  S
Co92       Cl103   2.495   1_554  S
N93         C104   1.344       .  A
C94         C520   1.481       .  S
Co96       Cl103   2.413       .  S
C104        C664   1.480       .  S
C107        N125   1.348       .  A
C107        C144   1.456       .  S
C107        C784   1.473       .  S
N108        N125   1.325       .  A
N108        N130   1.317       .  A
N108       Co145   2.082       .  S
C109        N134   1.349       .  A
C109        C147   1.473       .  S
C109        H154   1.081       .  S
H110        C151   1.081       .  S
C111        N135   1.333       .  A
C111        C115   1.451       .  S
C111        H140   1.082       .  S
Co112       N130   2.079   1_565  S
Co112       N120   2.074   1_565  S
Co112       N152   2.080       .  S
Co112       N128   2.070       .  S
Co112      Cl156   2.416   1_565  S
N113        C151   1.352       .  A
N113        N120   1.322       .  A
N113       Co114   2.115   1_545  S
Co114       N117   2.114   1_565  S
Co114       N134   2.116       .  S
Co114       N121   2.115       .  S
Co114      Cl156   2.491   1_565  S
C115        N153   1.358       .  A
C115        C472   1.482       .  S
N116        N123   1.316       .  A
N116        N146   1.328       .  A
N116       Co149   2.094       .  S
N117        N135   1.322       .  A
N117        N153   1.331       .  A
N118        C147   1.343       .  A
N118        N128   1.319       .  A
H119        C144   1.080       .  S
N120        N141   1.318       .  A
N121        N139   1.323       .  A
N121        N126   1.331       .  A
C122        N126   1.359       .  A
C122        C150   1.448       .  S
C122        C419   1.479       .  S
N123        C138   1.338       .  A
N123       Co145   2.075       .  S
C124        N152   1.341       .  A
C124        C127   1.464       .  S
C124        H158   1.081       .  S
C127        N148   1.351       .  A
C127        C755   1.489       .  S
N128        N134   1.322       .  A
N129        C155   1.341       .  A
N129        N131   1.316       .  A
N129       Co145   2.081   1_565  S
N130        C144   1.340       .  A
N131        N159   1.326       .  A
N131       Co149   2.090   1_565  S
H132        C155   1.079       .  S
H133        C150   1.080       .  S
N135       Co149   2.071       .  S
N136        N148   1.322       .  A
N136        N152   1.315       .  A
N136       Co145   2.078   1_565  S
C137        N141   1.342       .  A
C137        C151   1.474       .  S
C137        C491   1.481       .  S
C138        C157   1.459       .  S
C138        H142   1.081       .  S
N139        C150   1.333       .  A
N139       Co149   2.072   1_565  S
C143        N159   1.353       .  A
C143        C155   1.466       .  S
C143        C515   1.497       .  S
Co145      Cl156   2.487       .  S
N146        C157   1.355       .  A
C147        C448   1.479       .  S
Co149      Cl156   2.414       .  S
C157        C539   1.491       .  S
C160        N178   1.365       .  A
C160        C197   1.443       .  S
C160        C400   1.488       .  S
N161        N178   1.336       .  A
N161        N183   1.322       .  A
N161       Co198   2.129   1_545  S
C162        N187   1.342       .  A
C162        C200   1.470       .  S
C162        H207   1.076       .  S
H163        C204   1.081       .  S
C164        N188   1.335       .  A
C164        C168   1.448       .  S
C164        H193   1.081       .  S
Co165       N183   2.058   1_565  S
Co165       N173   2.082   1_565  S
Co165       N205   2.065       .  S
Co165       N181   2.080       .  S
Co165      Cl209   2.408       .  S
N166        C204   1.342       .  A
N166        N173   1.316       .  A
N166       Co167   2.078   1_545  S
Co167       N170   2.098   1_565  S
Co167       N187   2.094       .  S
Co167       N174   2.079       .  S
Co167      Cl209   2.485       .  S
C168        N206   1.353       .  A
C168        C592   1.469       .  S
N169        N176   1.322       .  A
N169        N199   1.321       .  A
N169       Co202   2.078       .  S
N170        N188   1.319       .  A
N170        N206   1.327       .  A
N171        C200   1.353       .  A
N171        N181   1.325       .  A
H172        C197   1.081       .  S
N173        N194   1.325       .  A
N174        N192   1.315       .  A
N174        N179   1.324       .  A
C175        N179   1.350       .  A
C175        C203   1.458       .  S
C175        C568   1.472       .  S
N176        C191   1.350       .  A
N176       Co198   2.110   1_545  S
C177        N205   1.333       .  A
C177        C180   1.452       .  S
C177        H211   1.082       .  S
C180        N201   1.357       .  A
C180        C347   1.477       .  S
N181        N187   1.316       .  A
N182        C208   1.351       .  A
N182        N184   1.323       .  A
N182       Co198   2.114       .  S
N183        C197   1.324       .  A
N184        N212   1.315       .  A
N184       Co202   2.062   1_565  S
H185        C208   1.081       .  S
H186        C203   1.080       .  S
N188       Co202   2.062       .  S
N189        N201   1.329       .  A
N189        N205   1.320       .  A
N189       Co198   2.108       .  S
C190        N194   1.347       .  A
C190        C204   1.459       .  S
C190        C736   1.472       .  S
C191        C210   1.473       .  S
C191        H195   1.081       .  S
N192        C203   1.340       .  A
N192       Co202   2.082   1_565  S
C196        N212   1.339       .  A
C196        C208   1.473       .  S
C196        C323   1.475       .  S
Co198      Cl209   2.503       .  S
N199        C210   1.343       .  A
C200        C707   1.497       .  S
Co202      Cl209   2.410   1_545  S
C210        C371   1.484       .  S
C213        N231   1.350       .  A
C213        C250   1.457       .  S
C213        C875   1.478       .  S
N214        N231   1.326       .  A
N214        N236   1.317       .  A
N214       Co251   2.084       .  S
C215        N240   1.353       .  A
C215        C253   1.477       .  S
C215        H260   1.081       .  S
H216        C257   1.081       .  S
C217        N241   1.335       .  A
C217        C221   1.451       .  S
C217        H246   1.082       .  S
Co218       N236   2.076       .  S
Co218       N226   2.073       .  S
Co218       N258   2.083       .  S
Co218       N234   2.073       .  S
Co218      Cl262   2.412   1_455  S
N219        C257   1.348       .  A
N219        N226   1.322       .  A
N219       Co220   2.106   1_455  S
Co220       N223   2.115       .  S
Co220       N240   2.120   1_655  S
Co220       N227   2.116       .  S
Co220      Cl262   2.495       .  S
C221        N259   1.359       .  A
C221        C467   1.480       .  S
N222        N229   1.317       .  A
N222        N252   1.326       .  A
N222       Co255   2.092       .  S
N223        N241   1.322       .  A
N223        N259   1.330       .  A
N224        C253   1.342       .  A
N224        N234   1.317       .  A
H225        C250   1.081       .  S
N226        N247   1.319       .  A
N227        N245   1.322       .  A
N227        N232   1.332       .  A
C228        N232   1.359       .  A
C228        C256   1.452       .  S
C228        C376   1.486       .  S
N229        C244   1.344       .  A
N229       Co251   2.079   1_655  S
C230        N258   1.341       .  A
C230        C233   1.458       .  S
C230        H264   1.077       .  S
C233        N254   1.350       .  A
C233        C851   1.479       .  S
N234        N240   1.323       .  A
N235        C261   1.340       .  A
N235        N237   1.317       .  A
N235       Co251   2.074   1_655  S
N236        C250   1.338       .  A
N237        N265   1.326       .  A
N237       Co255   2.094       .  S
H238        C261   1.080       .  S
H239        C256   1.082       .  S
N241       Co255   2.074       .  S
N242        N254   1.327       .  A
N242        N258   1.316       .  A
N242       Co251   2.086       .  S
C243        N247   1.342       .  A
C243        C257   1.471       .  S
C243        C496   1.479       .  S
C244        C263   1.456       .  S
C244        H248   1.081       .  S
N245        C256   1.334       .  A
N245       Co255   2.075       .  S
C249        N265   1.353       .  A
C249        C261   1.456       .  S
C249        C659   1.481       .  S
Co251      Cl262   2.494   1_455  S
N252        C263   1.351       .  A
C253        C395   1.487       .  S
Co255      Cl262   2.408       .  S
C263        C688   1.479       .  S
C266        N284   1.355       .  A
C266        C303   1.452       .  S
C266        C443   1.476       .  S
N267        N284   1.330       .  A
N267        N289   1.321       .  A
N267       Co304   2.099       .  S
C268        N293   1.342       .  A
C268        C306   1.468       .  S
C268        H313   1.077       .  S
H269        C310   1.081       .  S
C270        N294   1.337       .  A
C270        C274   1.457       .  S
C270        H299   1.081       .  S
Co271       N289   2.071       .  S
Co271       N279   2.087       .  S
Co271       N311   2.067       .  S
Co271       N287   2.083       .  S
Co271      Cl315   2.409   1_455  S
N272        C310   1.343       .  A
N272        N279   1.318       .  A
N272       Co273   2.086   1_455  S
Co273       N276   2.085       .  S
Co273       N293   2.079   1_655  S
Co273       N280   2.091       .  S
Co273      Cl315   2.490       .  S
C274        N312   1.350       .  A
C274        C635   1.480       .  S
N275        N282   1.322       .  A
N275        N305   1.320       .  A
N275       Co308   2.081       .  S
N276        N294   1.317       .  A
N276        N312   1.326       .  A
N277        C306   1.352       .  A
N277        N287   1.323       .  A
H278        C303   1.082       .  S
N279        N300   1.326       .  A
N280        N298   1.317       .  A
N280        N285   1.327       .  A
C281        N285   1.351       .  A
C281        C309   1.459       .  S
C281        C611   1.482       .  S
N282        C297   1.349       .  A
N282       Co304   2.108   1_655  S
C283        N311   1.332       .  A
C283        C286   1.450       .  S
C283        H317   1.082       .  S
C286        N307   1.358       .  A
C286        C352   1.475       .  S
N287        N293   1.314       .  A
N288        C314   1.349       .  A
N288        N290   1.321       .  A
N288       Co304   2.102   1_655  S
N289        C303   1.331       .  A
N290        N318   1.315       .  A
N290       Co308   2.066       .  S
H291        C314   1.081       .  S
H292        C309   1.081       .  S
N294       Co308   2.071       .  S
N295        N307   1.329       .  A
N295        N311   1.321       .  A
N295       Co304   2.109       .  S
C296        N300   1.351       .  A
C296        C310   1.458       .  S
C296        C832   1.483       .  S
C297        C316   1.471       .  S
C297        H301   1.081       .  S
N298        C309   1.340       .  A
N298       Co308   2.086       .  S
C302        N318   1.342       .  A
C302        C314   1.473       .  S
C302        C328   1.479       .  S
Co304      Cl315   2.490   1_455  S
N305        C316   1.345       .  A
C306        C808   1.495       .  S
Co308      Cl315   2.412       .  S
C316        C424   1.480       .  S
C319        C320   1.418       .  A
C319        C324   1.407       .  A
C319        C333   1.444       .  S
C320        C325   1.495       .  S
C320        C321   1.402       .  A
C321        H340   1.085       .  S
C321        C322   1.393       .  A
C322        C323   1.411       .  A
C322        C334   1.445       .  S
C323        C324   1.403       .  A
C324        H339   1.084       .  S
C325        C326   1.408       .  A
C325        C330   1.414       .  A
C326        H341   1.085       .  S
C326        C327   1.405       .  A
C327        C328   1.412       .  A
C327        C331   1.443       .  S
C328        C329   1.403       .  A
C329        H342   1.086       .  S
C329        C330   1.394       .  A
C330        C332   1.446       .  S
C331        N335   1.157       .  T
C332        N336   1.157       .  T
C333        N338   1.157       .  T
C334        N337   1.157       .  T
C343        C344   1.418       .  A
C343        C348   1.404       .  A
C343        C357   1.444       .  S
C344        C349   1.494       .  S
C344        C345   1.402       .  A
C345        H364   1.085       .  S
C345        C346   1.398       .  A
C346        C347   1.413       .  A
C346        C358   1.442       .  S
C347        C348   1.400       .  A
C348        H363   1.085       .  S
C349        C350   1.405       .  A
C349        C354   1.415       .  A
C350        H365   1.085       .  S
C350        C351   1.399       .  A
C351        C352   1.409       .  A
C351        C355   1.445       .  S
C352        C353   1.404       .  A
C353        H366   1.085       .  S
C353        C354   1.404       .  A
C354        C356   1.444       .  S
C355        N359   1.157       .  T
C356        N360   1.157       .  T
C357        N362   1.157       .  T
C358        N361   1.156       .  T
C367        C368   1.411       .  A
C367        C372   1.403       .  A
C367        C381   1.444       .  S
C368        C373   1.495       .  S
C368        C369   1.405       .  A
C369        H388   1.084       .  S
C369        C370   1.409       .  A
C370        C371   1.415       .  A
C370        C382   1.444       .  S
C371        C372   1.403       .  A
C372        H387   1.085       .  S
C373        C374   1.408       .  A
C373        C378   1.409       .  A
C374        H389   1.085       .  S
C374        C375   1.407       .  A
C375        C376   1.408       .  A
C375        C379   1.443       .  S
C376        C377   1.408       .  A
C377        H390   1.085       .  S
C377        C378   1.403       .  A
C378        C380   1.444       .  S
C379        N383   1.157       .  T
C380        N384   1.157       .  T
C381        N386   1.157       .  T
C382        N385   1.157       .  T
C391        C392   1.415       .  A
C391        C396   1.411       .  A
C391        C405   1.443       .  S
C392        C397   1.497       .  S
C392        C393   1.401       .  A
C393        H412   1.085       .  S
C393        C394   1.395       .  A
C394        C395   1.415       .  A
C394        C406   1.445       .  S
C395        C396   1.407       .  A
C396        H411   1.084       .  S
C397        C398   1.411       .  A
C397        C402   1.411       .  A
C398        H413   1.084       .  S
C398        C399   1.411       .  A
C399        C400   1.411       .  A
C399        C403   1.442       .  S
C400        C401   1.407       .  A
C401        H414   1.085       .  S
C401        C402   1.394       .  A
C402        C404   1.446       .  S
C403        N407   1.157       .  T
C404        N408   1.157       .  T
C405        N410   1.157       .  T
C406        N409   1.157       .  T
C415        C416   1.414       .  A
C415        C420   1.406       .  A
C415        C429   1.444       .  S
C416        C421   1.494       .  S
C416        C417   1.405       .  A
C417        H436   1.084       .  S
C417        C418   1.401       .  A
C418        C419   1.410       .  A
C418        C430   1.444       .  S
C419        C420   1.405       .  A
C420        H435   1.084       .  S
C421        C422   1.402       .  A
C421        C426   1.416       .  A
C422        H437   1.084       .  S
C422        C423   1.399       .  A
C423        C424   1.413       .  A
C423        C427   1.444       .  S
C424        C425   1.403       .  A
C425        H438   1.084       .  S
C425        C426   1.408       .  A
C426        C428   1.444       .  S
C427        N431   1.157       .  T
C428        N432   1.157       .  T
C429        N434   1.157       .  T
C430        N433   1.157       .  T
C439        C440   1.410       .  A
C439        C444   1.398       .  A
C439        C453   1.444       .  S
C440        C445   1.489       .  S
C440        C441   1.409       .  A
C441        H460   1.085       .  S
C441        C442   1.405       .  A
C442        C443   1.406       .  A
C442        C454   1.443       .  S
C443        C444   1.405       .  A
C444        H459   1.086       .  S
C445        C446   1.402       .  A
C445        C450   1.413       .  A
C446        H461   1.085       .  S
C446        C447   1.399       .  A
C447        C448   1.411       .  A
C447        C451   1.443       .  S
C448        C449   1.405       .  A
C449        H462   1.085       .  S
C449        C450   1.406       .  A
C450        C452   1.443       .  S
C451        N455   1.157       .  T
C452        N456   1.157       .  T
C453        N458   1.157       .  T
C454        N457   1.157       .  T
C463        C464   1.411       .  A
C463        C468   1.406       .  A
C463        C477   1.443       .  S
C464        C469   1.489       .  S
C464        C465   1.403       .  A
C465        H484   1.084       .  S
C465        C466   1.402       .  A
C466        C467   1.411       .  A
C466        C478   1.444       .  S
C467        C468   1.406       .  A
C468        H483   1.085       .  S
C469        C470   1.406       .  A
C469        C474   1.409       .  A
C470        H485   1.084       .  S
C470        C471   1.406       .  A
C471        C472   1.408       .  A
C471        C475   1.443       .  S
C472        C473   1.408       .  A
C473        H486   1.085       .  S
C473        C474   1.402       .  A
C474        C476   1.444       .  S
C475        N479   1.157       .  T
C476        N480   1.157       .  T
C477        N482   1.157       .  T
C478        N481   1.157       .  T
C487        C488   1.412       .  A
C487        C492   1.400       .  A
C487        C501   1.445       .  S
C488        C493   1.498       .  S
C488        C489   1.410       .  A
C489        H508   1.084       .  S
C489        C490   1.407       .  A
C490        C491   1.408       .  A
C490        C502   1.443       .  S
C491        C492   1.405       .  A
C492        H507   1.085       .  S
C493        C494   1.407       .  A
C493        C498   1.414       .  A
C494        H509   1.085       .  S
C494        C495   1.405       .  A
C495        C496   1.412       .  A
C495        C499   1.444       .  S
C496        C497   1.402       .  A
C497        H510   1.085       .  S
C497        C498   1.401       .  A
C498        C500   1.444       .  S
C499        N503   1.157       .  T
C500        N504   1.157       .  T
C501        N506   1.157       .  T
C502        N505   1.157       .  T
C511        C512   1.409       .  A
C511        C516   1.401       .  A
C511        C525   1.442       .  S
C512        C517   1.490       .  S
C512        C513   1.401       .  A
C513        H532   1.085       .  S
C513        C514   1.405       .  A
C514        C515   1.420       .  A
C514        C526   1.443       .  S
C515        C516   1.409       .  A
C516        H531   1.082       .  S
C517        C518   1.403       .  A
C517        C522   1.413       .  A
C518        H533   1.084       .  S
C518        C519   1.402       .  A
C519        C520   1.413       .  A
C519        C523   1.443       .  S
C520        C521   1.402       .  A
C521        H534   1.084       .  S
C521        C522   1.405       .  A
C522        C524   1.443       .  S
C523        N527   1.157   1_554  T
C524        N528   1.157       .  T
C525        N530   1.156       .  T
C526        N529   1.157       .  T
C535        C536   1.414       .  A
C535        C540   1.399       .  A
C535        C549   1.442       .  S
C536        C541   1.500       .  S
C536        C537   1.409       .  A
C537        H556   1.085       .  S
C537        C538   1.407       .  A
C538        C539   1.413       .  A
C538        C550   1.444       .  S
C539        C540   1.406       .  A
C540        H555   1.084       .  S
C541        C542   1.409       .  A
C541        C546   1.416       .  A
C542        H557   1.084       .  S
C542        C543   1.407       .  A
C543        C544   1.411       .  A
C543        C547   1.443       .  S
C544        C545   1.405       .  A
C545        H558   1.083       .  S
C545        C546   1.400       .  A
C546        C548   1.442       .  S
C547        N551   1.157       .  T
C548        N552   1.157   1_554  T
C549        N554   1.157       .  T
C550        N553   1.157       .  T
C559        C560   1.407       .  A
C559        C564   1.399       .  A
C559        C573   1.445       .  S
C560        C565   1.481       .  S
C560        C561   1.400       .  A
C561        H580   1.085       .  S
C561        C562   1.403       .  A
C562        C563   1.419       .  A
C562        C574   1.444       .  S
C563        C564   1.409       .  A
C564        H579   1.082       .  S
C565        C566   1.400       .  A
C565        C570   1.412       .  A
C566        H581   1.085       .  S
C566        C567   1.399       .  A
C567        C568   1.412       .  A
C567        C571   1.445       .  S
C568        C569   1.401       .  A
C569        H582   1.084       .  S
C569        C570   1.403       .  A
C570        C572   1.444       .  S
C571        N575   1.157       .  T
C572        N576   1.157       .  T
C573        N578   1.157       .  T
C574        N577   1.157       .  T
C583        C584   1.415       .  A
C583        C588   1.402       .  A
C583        C597   1.443       .  S
C584        C589   1.489       .  S
C584        C585   1.401       .  A
C585        H604   1.084       .  S
C585        C586   1.398       .  A
C586        C587   1.415       .  A
C586        C598   1.443       .  S
C587        C588   1.401       .  A
C588        H603   1.085       .  S
C589        C590   1.404       .  A
C589        C594   1.417       .  A
C590        H605   1.084       .  S
C590        C591   1.398       .  A
C591        C592   1.412       .  A
C591        C595   1.445       .  S
C592        C593   1.398       .  A
C593        H606   1.085       .  S
C593        C594   1.400       .  A
C594        C596   1.444       .  S
C595        N599   1.157       .  T
C596        N600   1.157       .  T
C597        N602   1.157       .  T
C598        N601   1.157       .  T
C607        C608   1.413       .  A
C607        C612   1.406       .  A
C607        C621   1.444       .  S
C608        C613   1.489       .  S
C608        C609   1.401       .  A
C609        H628   1.084       .  S
C609        C610   1.402       .  A
C610        C611   1.414       .  A
C610        C622   1.444       .  S
C611        C612   1.403       .  A
C612        H627   1.084       .  S
C613        C614   1.405       .  A
C613        C618   1.409       .  A
C614        H629   1.085       .  S
C614        C615   1.409       .  A
C615        C616   1.415       .  A
C615        C619   1.442       .  S
C616        C617   1.407       .  A
C617        H630   1.085       .  S
C617        C618   1.399       .  A
C618        C620   1.445       .  S
C619        N623   1.157       .  T
C620        N624   1.157       .  T
C621        N626   1.157       .  T
C622        N625   1.157       .  T
C631        C632   1.409       .  A
C631        C636   1.396       .  A
C631        C645   1.444       .  S
C632        C637   1.484       .  S
C632        C633   1.404       .  A
C633        H652   1.086       .  S
C633        C634   1.403       .  A
C634        C635   1.412       .  A
C634        C646   1.444       .  S
C635        C636   1.406       .  A
C636        H651   1.085       .  S
C637        C638   1.405       .  A
C637        C642   1.409       .  A
C638        H653   1.084       .  S
C638        C639   1.408       .  A
C639        C640   1.415       .  A
C639        C643   1.442       .  S
C640        C641   1.405       .  A
C641        H654   1.084       .  S
C641        C642   1.392       .  A
C642        C644   1.446       .  S
C643        N647   1.157       .  T
C644        N648   1.157       .  T
C645        N650   1.157       .  T
C646        N649   1.157       .  T
C655        C656   1.409       .  A
C655        C660   1.401       .  A
C655        C669   1.444       .  S
C656        C661   1.485       .  S
C656        C657   1.402       .  A
C657        H676   1.085       .  S
C657        C658   1.402       .  A
C658        C659   1.413       .  A
C658        C670   1.444       .  S
C659        C660   1.405       .  A
C660        H675   1.085       .  S
C661        C662   1.405       .  A
C661        C666   1.408       .  A
C662        H677   1.084       .  S
C662        C663   1.406       .  A
C663        C664   1.414       .  A
C663        C667   1.442       .  S
C664        C665   1.405       .  A
C665        H678   1.085       .  S
C665        C666   1.394       .  A
C666        C668   1.445       .  S
C667        N671   1.157       .  T
C668        N672   1.157       .  T
C669        N674   1.157       .  T
C670        N673   1.157       .  T
C679        C680   1.412       .  A
C679        C684   1.401       .  A
C679        C693   1.444       .  S
C680        C685   1.492       .  S
C680        C681   1.405       .  A
C681        H700   1.085       .  S
C681        C682   1.405       .  A
C682        C683   1.414       .  A
C682        C694   1.444       .  S
C683        C684   1.404       .  A
C684        H699   1.085       .  S
C685        C686   1.405       .  A
C685        C690   1.415       .  A
C686        H701   1.084       .  S
C686        C687   1.404       .  A
C687        C688   1.412       .  A
C687        C691   1.444       .  S
C688        C689   1.401       .  A
C689        H702   1.085       .  S
C689        C690   1.403       .  A
C690        C692   1.444       .  S
C691        N695   1.157       .  T
C692        N696   1.157       .  T
C693        N698   1.157       .  T
C694        N697   1.157       .  T
C703        C704   1.416       .  A
C703        C708   1.407       .  A
C703        C717   1.444       .  S
C704        C709   1.504       .  S
C704        C705   1.405       .  A
C705        H724   1.084       .  S
C705        C706   1.398       .  A
C706        C707   1.417       .  A
C706        C718   1.441       .  S
C707        C708   1.410       .  A
C708        H723   1.084       .  S
C709        C710   1.411       .  A
C709        C714   1.416       .  A
C710        H725   1.084       .  S
C710        C711   1.409       .  A
C711        C712   1.413       .  A
C711        C715   1.443       .  S
C712        C713   1.396       .  A
C713        H726   1.084       .  S
C713        C714   1.388       .  A
C714        C716   1.433       .  S
C715        N719   1.157       .  T
C716        N720   1.152   1_556  T
C717        N722   1.158       .  T
C718        N721   1.158       .  T
C727        C728   1.409       .  A
C727        C732   1.399       .  A
C727        C741   1.444       .  S
C728        C733   1.488       .  S
C728        C729   1.401       .  A
C729        H748   1.085       .  S
C729        C730   1.404       .  A
C730        C731   1.420       .  A
C730        C742   1.444       .  S
C731        C732   1.407       .  A
C732        H747   1.082       .  S
C733        C734   1.405       .  A
C733        C738   1.412       .  A
C734        H749   1.083       .  S
C734        C735   1.399       .  A
C735        C736   1.406       .  A
C735        C739   1.443       .  S
C736        C737   1.404       .  A
C737        H750   1.085       .  S
C737        C738   1.403       .  A
C738        C740   1.444       .  S
C739        N743   1.157       .  T
C740        N744   1.157       .  T
C741        N746   1.156       .  T
C742        N745   1.157       .  T
C751        C752   1.408       .  A
C751        C756   1.403       .  A
C751        C765   1.444       .  S
C752        C757   1.490       .  S
C752        C753   1.402       .  A
C753        H772   1.068       .  S
C753        C754   1.399       .  A
C754        C755   1.415       .  A
C754        C766   1.445       .  S
C755        C756   1.408       .  A
C756        H771   1.081       .  S
C757        C758   1.403       .  A
C757        C762   1.411       .  A
C758        H773   1.084       .  S
C758        C759   1.404       .  A
C759        C760   1.413       .  A
C759        C763   1.444       .  S
C760        C761   1.403       .  A
C761        H774   1.084       .  S
C761        C762   1.406       .  A
C762        C764   1.443       .  S
C763        N767   1.157       .  T
C764        N768   1.157       .  T
C765        N770   1.157       .  T
C766        N769   1.157       .  T
C775        C776   1.420       .  A
C775        C780   1.403       .  A
C775        C789   1.444       .  S
C776        C781   1.499       .  S
C776        C777   1.406       .  A
C777        H796   1.084       .  S
C777        C778   1.397       .  A
C778        C779   1.410       .  A
C778        C790   1.445       .  S
C779        C780   1.399       .  A
C780        H795   1.085       .  S
C781        C782   1.406       .  A
C781        C786   1.421       .  A
C782        H797   1.083       .  S
C782        C783   1.402       .  A
C783        C784   1.411       .  A
C783        C787   1.445       .  S
C784        C785   1.396       .  A
C785        H798   1.085       .  S
C785        C786   1.400       .  A
C786        C788   1.444       .  S
C787        N791   1.157       .  T
C788        N792   1.157       .  T
C789        N794   1.158       .  T
C790        N793   1.157       .  T
C799        C800   1.412       .  A
C799        C804   1.397       .  A
C799        C813   1.445       .  S
C800        C805   1.490       .  S
C800        C801   1.408       .  A
C801        H820   1.085       .  S
C801        C802   1.403       .  A
C802        C803   1.406       .  A
C802        C814   1.443       .  S
C803        C804   1.404       .  A
C804        H819   1.086       .  S
C805        C806   1.402       .  A
C805        C810   1.410       .  A
C806        H821   1.086       .  S
C806        C807   1.403       .  A
C807        C808   1.421       .  A
C807        C811   1.442       .  S
C808        C809   1.409       .  A
C809        H822   1.085       .  S
C809        C810   1.399       .  A
C810        C812   1.445       .  S
C811        N815   1.158   1_455  T
C812        N816   1.157       .  T
C813        N818   1.157       .  T
C814        N817   1.157       .  T
C823        C824   1.408       .  A
C823        C828   1.398       .  A
C823        C837   1.445       .  S
C824        C829   1.488       .  S
C824        C825   1.404       .  A
C825        H844   1.085       .  S
C825        C826   1.406       .  A
C826        C827   1.416       .  A
C826        C838   1.442       .  S
C827        C828   1.407       .  A
C828        H843   1.086       .  S
C829        C830   1.401       .  A
C829        C834   1.412       .  A
C830        H845   1.085       .  S
C830        C831   1.401       .  A
C831        C832   1.415       .  A
C831        C835   1.443       .  S
C832        C833   1.404       .  A
C833        H846   1.085       .  S
C833        C834   1.403       .  A
C834        C836   1.444       .  S
C835        N839   1.157       .  T
C836        N840   1.157       .  T
C837        N842   1.157       .  T
C838        N841   1.157       .  T
C847        C848   1.411       .  A
C847        C852   1.406       .  A
C847        C861   1.441       .  S
C848        C853   1.491       .  S
C848        C849   1.405       .  A
C849        H868   1.084       .  S
C849        C850   1.401       .  A
C850        C851   1.408       .  A
C850        C862   1.444       .  S
C851        C852   1.406       .  A
C852        H867   1.084       .  S
C853        C854   1.402       .  A
C853        C858   1.414       .  A
C854        H869   1.085       .  S
C854        C855   1.399       .  A
C855        C856   1.411       .  A
C855        C859   1.445       .  S
C856        C857   1.406       .  A
C857        H870   1.085       .  S
C857        C858   1.408       .  A
C858        C860   1.444       .  S
C859        N863   1.157       .  T
C860        N864   1.157       .  T
C861        N866   1.156   1_455  T
C862        N865   1.157       .  T
C871        C872   1.411       .  A
C871        C876   1.398       .  A
C871        C885   1.444       .  S
C872        C877   1.489       .  S
C872        C873   1.406       .  A
C873        H892   1.084       .  S
C873        C874   1.403       .  A
C874        C875   1.410       .  A
C874        C886   1.444       .  S
C875        C876   1.405       .  A
C876        H891   1.085       .  S
C877        C878   1.406       .  A
C877        C882   1.412       .  A
C878        H893   1.085       .  S
C878        C879   1.406       .  A
C879        C880   1.414       .  A
C879        C883   1.443       .  S
C880        C881   1.404       .  A
C881        H894   1.086       .  S
C881        C882   1.396       .  A
C882        C884   1.445       .  S
C883        N887   1.157       .  T
C884        N888   1.157       .  T
C885        N890   1.157       .  T
C886        N889   1.157       .  T
