geometry optimzed in LAMMPS
_audit_creation_date              2020-11-30 
_audit_creation_method            'lammps2cif' 
_symmetry_space_group_name_H-M    'P1' 
_symmetry_Int_Tables_number       1 
_symmetry_cell_setting            triclinic 
loop_ 
_symmetry_equiv_pos_as_xyz 
  x,y,z 
_cell_length_a                    52.45153641 
_cell_length_b                    52.37348544080148 
_cell_length_c                    52.420592852833266 
_cell_angle_alpha                 89.96409577077937 
_cell_angle_beta                  90.01247561604247 
_cell_angle_gamma                 90.09840868807181 
loop_ 
_atom_site_label 
_atom_site_type_symbol 
_atom_site_fract_x 
_atom_site_fract_y 
_atom_site_fract_z 
_atom_site_charge 
C1          C  0.99368196  0.24682042  0.24035240     0.79800
N2          N  0.98627710  0.22553579  0.25373389    -0.78500
C3          C  0.99660031  0.22097554  0.27741402     0.82200
N4          N  0.01357571  0.23798590  0.28722199    -0.78500
C5          C  0.02065925  0.25907887  0.27411136     0.82300
N6          N  0.01064642  0.26322643  0.25078906    -0.80200
O7          O  0.02795958  0.43050262  0.43853750    -0.80600
O8          O  0.03187057  0.57517038  0.43433172    -0.82100
O9          O  0.98336530  0.50115487  0.40286788    -0.79200
O10         O  0.06924477  0.50468239  0.40707438    -0.77600
O11         O  0.09799030  0.50567732  0.43989973    -0.79300
O12         O  0.95202780  0.50056121  0.43319750    -0.80300
O13         O  0.03237765  0.54354019  0.40429227    -0.81600
O14         O  0.02962442  0.46040711  0.40676043    -0.81900
Eu15       Eu  0.02545342  0.50272364  0.42584614     2.39200
O16         O  0.04956745  0.52876627  0.45319120    -0.89400
O17         O  0.99875687  0.47715164  0.45158806    -0.93000
C18         C  0.03050177  0.43721486  0.41497554     1.01700
C19         C  0.03523297  0.56694804  0.41135742     1.01500
C20         C  0.95956460  0.50002248  0.40976175     1.01500
C21         C  0.09234354  0.50581231  0.41592089     0.99300
H22         H  0.98824271  0.53977202  0.43801743     0.29100
O23         O  0.99822700  0.52955968  0.44965035    -1.01800
H24         H  0.06178797  0.46741280  0.44447179     0.29100
O25         O  0.05027788  0.47798035  0.45419030    -1.04300
O26         O  0.01601986  0.57746886  0.51748585    -0.81600
O27         O  0.02447170  0.43263988  0.52244607    -0.81100
O28         O  0.95086018  0.54590695  0.47268852    -0.79500
O29         O  0.09535577  0.54702754  0.47932283    -0.82900
O30         O  0.09629847  0.46191906  0.48202185    -0.80700
O31         O  0.95064712  0.46109546  0.47551717    -0.79400
O32         O  0.97782986  0.50665165  0.54907216    -0.80900
O33         O  0.06275630  0.50794794  0.55304298    -0.82800
O34         O  0.94852505  0.50578611  0.51673794    -0.79600
O35         O  0.09450546  0.50642922  0.52323110    -0.82200
O36         O  0.98108829  0.57742088  0.47148545    -0.78000
O37         O  0.98150281  0.43040335  0.47781253    -0.78000
O38         O  0.06538729  0.43108053  0.48125842    -0.77600
O39         O  0.06513509  0.57843552  0.47873320    -0.81100
O40         O  0.01552470  0.54749708  0.54923078    -0.80600
O41         O  0.02223391  0.46432425  0.55235930    -0.78900
Eu42       Eu  0.02317387  0.55628112  0.47637768     2.39800
Eu43       Eu  0.02348541  0.45223009  0.47968253     2.39600
Eu44       Eu  0.97159086  0.50359362  0.47561884     2.38400
Eu45       Eu  0.07506186  0.50443832  0.48071402     2.39900
Eu46       Eu  0.02122771  0.50548383  0.53003504     2.39800
O47         O  0.04826198  0.47890334  0.50608663    -0.93300
O48         O  0.99683067  0.53003669  0.50150352    -0.92200
C49         C  0.01318687  0.57056075  0.54095993     1.01900
C50         C  0.02391724  0.44064679  0.54576009     1.00600
C51         C  0.95762267  0.56964472  0.47112957     1.00000
C52         C  0.08862329  0.57077602  0.47876647     1.02000
C53         C  0.08897117  0.43825216  0.48185058     1.00900
C54         C  0.95788703  0.43748403  0.47645578     0.99700
C55         C  0.95458966  0.50691977  0.54064845     0.99800
C56         C  0.08660436  0.50777221  0.54651095     1.02400
H57         H  0.98526542  0.46810879  0.51433460     0.29800
O58         O  0.99626429  0.47855351  0.50384708    -1.05500
H59         H  0.05795680  0.54261474  0.51554144     0.31800
O60         O  0.04807085  0.53144042  0.50471710    -1.08000
C61         C  0.96178682  0.70199377  0.75657986     0.79800
N62         N  0.95006097  0.69042625  0.73652052    -0.78500
C63         C  0.94688322  0.70270931  0.71403311     0.82200
N64         N  0.95575109  0.72674392  0.71155878    -0.78500
C65         C  0.96768629  0.73870547  0.73100458     0.82300
N66         N  0.97110869  0.72630433  0.75370481    -0.80200
C67         C  0.97839371  0.26092769  0.75328703     0.79800
N68         N  0.97683847  0.23587176  0.74604083    -0.78500
C69         C  0.98361500  0.22918151  0.72172368     0.82200
N70         N  0.99194408  0.24740200  0.70524642    -0.78500
C71         C  0.99344474  0.27219019  0.71236199     0.82300
N72         N  0.98658891  0.27869969  0.73632203    -0.80200
C73         C  0.98844284  0.71897719  0.22887252     0.79800
N74         N  0.01024901  0.70972689  0.23920477    -0.78500
C75         C  0.01965097  0.71898848  0.26133208     0.82200
N76         N  0.00698975  0.73799546  0.27330894    -0.78500
C77         C  0.98523704  0.74787533  0.26343578     0.82300
N78         N  0.97546942  0.73806929  0.24119913    -0.80200
O79         O  0.97005994  0.01721935  0.43033728    -0.80600
O80         O  0.97898387  0.02102810  0.57616677    -0.82100
O81         O  0.93135498  0.04761705  0.50890074    -0.79200
O82         O  0.01486797  0.05261719  0.49850589    -0.77600
O83         O  0.04615556  0.02239052  0.49653307    -0.79300
O84         O  0.90233876  0.01508153  0.51265117    -0.80300
O85         O  0.97613616  0.05166828  0.54520848    -0.81600
O86         O  0.97012055  0.04882449  0.46045811    -0.81900
Eu87       Eu  0.97408234  0.02942970  0.50334488     2.39200
O88         O  0.00315065  0.00564745  0.52808585    -0.89400
O89         O  0.94740807  0.00166517  0.47968878    -0.93000
C90         C  0.96952104  0.04097765  0.43704160     1.01700
C91         C  0.97741941  0.04452718  0.56885736     1.01500
C92         C  0.90872400  0.03884873  0.51317829     1.01500
C93         C  0.03839415  0.04568901  0.49601251     0.99300
H94         H  0.94147940  0.01222464  0.54290830     0.29100
O95         O  0.95166172  0.00220375  0.53132468    -1.01800
H96         H  0.00831636  0.01444596  0.46423672     0.29100
O97         O  0.99891915  0.00385727  0.47605598    -1.04300
O98         O  0.98363558  0.93753148  0.57863163    -0.81600
O99         O  0.97284012  0.93352656  0.43303129    -0.81100
O100        O  0.90723821  0.97363414  0.55178121    -0.79500
O101        O  0.05254754  0.98333621  0.54048670    -0.82900
O102        O  0.04590547  0.97735827  0.45716229    -0.80700
O103        O  0.90029382  0.97203447  0.46684270    -0.79400
O104        O  0.93953094  0.90348368  0.51688425    -0.80900
O105        O  0.02308022  0.90680930  0.50529426    -0.82800
O106        O  0.90713205  0.93264945  0.51761054    -0.79600
O107        O  0.05093889  0.94025025  0.50190165    -0.82200
O108        O  0.94024796  0.97520277  0.58026961    -0.78000
O109        O  0.92955244  0.97361966  0.43459689    -0.78000
O110        O  0.01316986  0.97563832  0.42841990    -0.77600
O111        O  0.02431026  0.98213093  0.57363431    -0.81100
O112        O  0.98271903  0.90568164  0.54877869    -0.80600
O113        O  0.97622575  0.90228263  0.46333289    -0.78900
Eu114      Eu  0.98062469  0.97864916  0.55614489     2.39800
Eu115      Eu  0.97269778  0.97588096  0.45280825     2.39600
Eu116      Eu  0.92488258  0.97461868  0.50777627     2.38400
Eu117      Eu  0.02764338  0.98001891  0.50061673     2.39900
Eu118      Eu  0.97955866  0.92482963  0.50542765     2.39800
O119        O  0.00175391  0.95185451  0.47719077    -0.93300
O120        O  0.95489311  0.95145807  0.53159480    -0.92200
C121        C  0.98370557  0.91373277  0.57214571     1.01900
C122        C  0.97396490  0.90986733  0.43981782     1.00600
C123        C  0.91623362  0.97368070  0.57481010     1.00000
C124        C  0.04720845  0.98360223  0.56456903     1.02000
C125        C  0.03718664  0.97595933  0.43410105     1.00900
C126        C  0.90637607  0.97225027  0.44282054     0.99700
C127        C  0.91628465  0.91014148  0.52141508     0.99800
C128        C  0.04581973  0.91633788  0.50409414     1.02400
H129        H  0.93892339  0.93714047  0.47151510     0.29800
O130        O  0.94994705  0.94864551  0.48085265    -1.05500
H131        H  0.01749090  0.94367179  0.53932675     0.31800
O132        O  0.00556533  0.95316375  0.52900352    -1.08000
C133        C  0.23311418  0.24639026  0.47931531     0.79800
N134        N  0.21361184  0.22940924  0.47958594    -0.78500
C135        C  0.21801835  0.20400268  0.48046297     0.82200
N136        N  0.24236192  0.19548916  0.48119474    -0.78500
C137        C  0.26234887  0.21203983  0.48094933     0.82300
N138        N  0.25775708  0.23778187  0.47985384    -0.80200
C139        C  0.75768454  0.23415111  0.50812216     0.79800
N140        N  0.76665353  0.21851502  0.52656225    -0.78500
C141        C  0.78960493  0.22250996  0.53749429     0.82200
N142        N  0.80370357  0.24287522  0.53001095    -0.78500
C143        C  0.79517425  0.25931177  0.51179477     0.82300
N144        N  0.77212486  0.25454765  0.50024098    -0.80200
C145        C  0.74615969  0.75715944  0.49602088     0.79800
N146        N  0.75506484  0.76641306  0.51844205    -0.78500
C147        C  0.77585817  0.75631961  0.52980288     0.82200
N148        N  0.78756864  0.73622613  0.51871857    -0.78500
C149        C  0.77922920  0.72640755  0.49627288     0.82300
N150        N  0.75873200  0.73742179  0.48426620    -0.80200
C151        C  0.25369614  0.74217159  0.48714362     0.79800
N152        N  0.23535612  0.75617332  0.49863967    -0.78500
C153        C  0.23878118  0.78119538  0.50367413     0.82200
N154        N  0.26106190  0.79237076  0.49710628    -0.78500
C155        C  0.27999028  0.77892320  0.48562439     0.82300
N156        N  0.27625696  0.75351513  0.48033562    -0.80200
C157        C  0.71545327  0.99286906  0.23364893     0.79800
N158        N  0.73308099  0.97772053  0.24579353    -0.78500
C159        C  0.74613128  0.98733035  0.26644027     0.82200
N160        N  0.74079614  0.01113652  0.27504981    -0.78500
C161        C  0.72309878  0.02584862  0.26347393     0.82300
N162        N  0.71073209  0.01653955  0.24293329    -0.80200
O163        O  0.47879540  0.07485360  0.48170567    -0.80600
O164        O  0.48507683  0.92906157  0.47620383    -0.82100
O165        O  0.45111708  0.00481006  0.43801928    -0.79200
O166        O  0.45168883  0.99679269  0.52164769    -0.77600
O167        O  0.48298140  0.99659352  0.55203694    -0.79300
O168        O  0.48115187  0.00822774  0.40651264    -0.80300
O169        O  0.45274116  0.95830460  0.47706906    -0.81600
O170        O  0.44886720  0.04311051  0.48103364    -0.81900
Eu171      Eu  0.47187352  0.00159229  0.47955894     2.39200
O172        O  0.49938449  0.97571629  0.50362838    -0.89400
O173        O  0.49680163  0.02919664  0.45434024    -0.93000
C174        C  0.45541022  0.06699361  0.48135118     1.01700
C175        C  0.46123634  0.93510460  0.47625354     1.01500
C176        C  0.45785711  0.00754083  0.41451835     1.01500
C177        C  0.45945441  0.99514128  0.54498706     0.99300
H178        H  0.48803960  0.96732489  0.44071830     0.29100
O179        O  0.49839073  0.97785939  0.45181621    -1.01800
H180        H  0.48581234  0.03707998  0.51813640     0.29100
O181        O  0.49667037  0.02735716  0.50690474    -1.04300
O182        O  0.56774338  0.93178048  0.47295474    -0.81600
O183        O  0.56254108  0.07791872  0.48059969    -0.78700
O184        O  0.52630401  0.96430884  0.40345056    -0.79500
O185        O  0.52741725  0.95762005  0.54929181    -0.82900
O186        O  0.52401671  0.04237676  0.55464041    -0.80700
O187        O  0.52367036  0.04881556  0.40766406    -0.79400
O188        O  0.59591264  0.01231262  0.43755440    -0.80900
O189        O  0.59673905  0.01029752  0.52015152    -0.82800
O190        O  0.56523075  0.01312529  0.40646903    -0.79600
O191        O  0.56586674  0.00751433  0.55080375    -0.82200
O192        O  0.52632111  0.93281449  0.43365668    -0.78000
O193        O  0.52153089  0.07758562  0.44041976    -0.78000
O194        O  0.52319104  0.07388171  0.52448607    -0.77600
O195        O  0.52722337  0.92845168  0.51682751    -0.81100
O196        O  0.59847845  0.96266331  0.47495098    -0.80600
O197        O  0.59462806  0.04836958  0.47912496    -0.78900
Eu198      Eu  0.52584466  0.95203069  0.47634850     2.39800
Eu199      Eu  0.52147856  0.05496304  0.48150939     2.39600
Eu200      Eu  0.52350430  0.00560559  0.42671496     2.38400
Eu201      Eu  0.52434165  0.00110440  0.53089010     2.39900
Eu202      Eu  0.57587020  0.00474405  0.47866494     2.39800
O203        O  0.54861368  0.02846013  0.50523459    -0.93300
O204        O  0.55089963  0.97943496  0.45105961    -0.92200
C205        C  0.59126787  0.93899894  0.47284457     1.01900
C206        C  0.58636260  0.07167805  0.47958126     1.00600
C207        C  0.52673878  0.94052421  0.41026501     1.00000
C208        C  0.52784722  0.93443660  0.54071582     1.02000
C209        C  0.52402659  0.06621826  0.54790956     1.00900
C210        C  0.52288551  0.07186538  0.41649577     0.99700
C211        C  0.58835658  0.01605770  0.41448617     0.99800
C212        C  0.58895514  0.01167359  0.54346172     1.02400
H213        H  0.55773175  0.04256176  0.44504504     0.29800
O214        O  0.54784633  0.03055783  0.45488647    -1.05500
H215        H  0.56270944  0.96622155  0.51405277     0.31800
O216        O  0.55140725  0.97687208  0.50404986    -1.08000
C217        C  0.26698447  0.97502762  0.74649521     0.79800
N218        N  0.24360912  0.97957013  0.73554206    -0.78500
C219        C  0.24102458  0.97772338  0.70951245     0.82200
N220        N  0.26178985  0.97194107  0.69527125    -0.78500
C221        C  0.28485003  0.96791873  0.70588629     0.82300
N222        N  0.28729112  0.96941998  0.73147940    -0.80200
C223        C  0.70703036  0.00073997  0.76082711     0.79800
N224        N  0.72983283  0.98871190  0.75634317    -0.78500
C225        C  0.74481021  0.99667794  0.73643149     0.82200
N226        N  0.73665776  0.01574749  0.72107111    -0.78500
C227        C  0.71400719  0.02728583  0.72496490     0.82300
N228        N  0.69940084  0.01966964  0.74481514    -0.80200
C229        C  0.24879871  0.98368339  0.24296940     0.79800
N230        N  0.22611573  0.97792368  0.25463854    -0.78500
C231        C  0.22257007  0.98427523  0.27982992     0.82200
N232        N  0.24191922  0.99582570  0.29284710    -0.78500
C233        C  0.26426540  0.00162490  0.28116213     0.82300
N234        N  0.26737238  0.99546703  0.25637496    -0.80200
O235        O  0.54837743  0.97334264  0.04499419    -0.80600
O236        O  0.40209325  0.97334445  0.04187847    -0.82100
O237        O  0.47212615  0.01426668  0.07711677    -0.79200
O238        O  0.46970170  0.93078653  0.07157067    -0.77600
O239        O  0.47034882  0.90159210  0.03913030    -0.79300
O240        O  0.47381004  0.04655973  0.04771856    -0.80300
O241        O  0.43183949  0.97121599  0.07367283    -0.81600
O242        O  0.51747153  0.97252583  0.07576434    -0.81900
Eu243      Eu  0.47521354  0.97370065  0.05390111     2.39200
O244        O  0.45052949  0.95005224  0.02506407    -0.89400
O245        O  0.50162954  0.00087820  0.02957425    -0.93000
C246        C  0.54112970  0.97242862  0.06851398     1.01700
C247        C  0.40841727  0.97128269  0.06563974     1.01500
C248        C  0.47176790  0.03808599  0.07076802     1.01500
C249        C  0.46746831  0.90789743  0.06274802     0.99300
H250        H  0.43911570  0.01121122  0.03958405     0.29100
O251        O  0.45025773  0.00140792  0.02870362    -1.01800
H252        H  0.51198999  0.93714875  0.03743730     0.29100
O253        O  0.50176021  0.94859139  0.02722047    -1.04300
O254        O  0.40483043  0.98116421  0.95835576    -0.81600
O255        O  0.55035161  0.97847494  0.96145005    -0.81100
O256        O  0.43426766  0.04985300  0.00537705    -0.79500
O257        O  0.43368277  0.90381838  0.99832326    -0.82900
O258        O  0.51856872  0.90285069  0.99647039    -0.80700
O259        O  0.51905905  0.04951124  0.00814196    -0.79400
O260        O  0.47761489  0.02207707  0.93160750    -0.80900
O261        O  0.47468689  0.93915945  0.92721632    -0.82800
O262        O  0.47701037  0.05192876  0.96342344    -0.79600
O263        O  0.47393523  0.90610274  0.95575178    -0.82200
O264        O  0.40342195  0.01902204  0.00385274    -0.78000
O265        O  0.54939878  0.01816323  0.00758223    -0.78000
O266        O  0.54890603  0.93414166  0.99898003    -0.77600
O267        O  0.40405526  0.93576916  0.99923296    -0.81100
O268        O  0.43592324  0.98222267  0.92783973    -0.80600
O269        O  0.52009217  0.97932567  0.93006493    -0.78900
Eu270      Eu  0.42481122  0.97743855  0.00078793     2.39800
Eu271      Eu  0.52810368  0.97621002  0.00293222     2.39600
Eu272      Eu  0.47667624  0.02879414  0.00457344     2.38400
Eu273      Eu  0.47629087  0.92445981  0.99875377     2.39900
Eu274      Eu  0.47746484  0.97950318  0.95028494     2.39800
O275        O  0.50279363  0.95184306  0.97492442    -0.93300
O276        O  0.45123443  0.00450777  0.97671266    -0.92200
C277        C  0.41226494  0.98256829  0.93488594     1.01900
C278        C  0.54354967  0.97906319  0.93773477     1.00600
C279        C  0.41064367  0.04255915  0.00527060     1.00000
C280        C  0.41040635  0.91201465  0.99887642     1.02000
C281        C  0.54210119  0.91050464  0.99666854     1.00900
C282        C  0.54251201  0.04184248  0.00900567     0.99700
C283        C  0.47714856  0.04530716  0.93964216     0.99800
C284        C  0.47290084  0.91528295  0.93292260     1.02400
H285        H  0.51409215  0.01508964  0.96816821     0.29800
O286        O  0.50310033  0.00398482  0.97795930    -1.05500
H287        H  0.43988326  0.94269679  0.96291165     0.31800
O288        O  0.45079253  0.95236735  0.97417229    -1.08000
C289        C  0.51436711  0.23466011  0.24518056     0.79800
N290        N  0.49876593  0.21736953  0.23412193    -0.78500
C291        C  0.49168915  0.21952169  0.20950978     0.82200
N292        N  0.50047359  0.23949336  0.19564815    -0.78500
C293        C  0.51606765  0.25741816  0.20615896     0.82300
N294        N  0.52337417  0.25490860  0.23120312    -0.80200
C295        C  0.50979157  0.72947764  0.22046382     0.79800
N296        N  0.48839241  0.73920968  0.20973094    -0.78500
C297        C  0.47769168  0.76092064  0.21867227     0.82200
N298        N  0.48853030  0.77284691  0.23882074    -0.78500
C299        C  0.50990473  0.76352239  0.24994257     0.82300
N300        N  0.52106054  0.74190992  0.24047708    -0.80200
C301        C  0.51787849  0.74041793  0.74722764     0.79800
N302        N  0.50158019  0.75298939  0.76277772    -0.78500
C303        C  0.48946549  0.77430216  0.75494855     0.82200
N304        N  0.49385988  0.78327035  0.73120470    -0.78500
C305        C  0.51011159  0.77115793  0.71512268     0.82300
N306        N  0.52247078  0.74954817  0.72317758    -0.80200
C307        C  0.50946956  0.22391062  0.72932277     0.79800
N308        N  0.49910479  0.20794122  0.74689116    -0.78500
C309        C  0.49710981  0.21466335  0.77166882     0.82200
N310        N  0.50557753  0.23790901  0.77899691    -0.78500
C311        C  0.51588359  0.25457752  0.76200390     0.82300
N312        N  0.51808138  0.24752489  0.73685517    -0.80200
O313        O  0.97891822  0.40394992  0.04552730    -0.80600
O314        O  0.97532658  0.54952021  0.04346433    -0.82100
O315        O  0.01754222  0.47546586  0.07679206    -0.79200
O316        O  0.93444165  0.48621794  0.07145010    -0.77600
O317        O  0.90521287  0.48635325  0.03902619    -0.79300
O318        O  0.04954199  0.47685513  0.04718254    -0.80300
O319        O  0.97570698  0.51965325  0.07532438    -0.81600
O320        O  0.97400269  0.43440175  0.07636831    -0.81900
Eu321      Eu  0.97664819  0.47691297  0.05445709     2.39200
O322        O  0.95267140  0.50108566  0.02554824    -0.89400
O323        O  0.00430019  0.45203122  0.02965215    -0.93000
C324        C  0.97612715  0.41081189  0.06901327     1.01700
C325        C  0.97489462  0.54305663  0.06724626     1.01500
C326        C  0.04125018  0.47534464  0.07029370     1.01500
C327        C  0.91224270  0.49110362  0.06211771     0.99300
H328        H  0.01324911  0.51423767  0.04050848     0.29100
O329        O  0.00331163  0.50339209  0.02939802    -1.01800
H330        H  0.94062305  0.43986020  0.03858132     0.29100
O331        O  0.95169039  0.45019942  0.02806304    -1.04300
O332        O  0.98100301  0.54932799  0.95986868    -0.81600
O333        O  0.98013486  0.40365968  0.96189474    -0.81100
O334        O  0.05126858  0.52071403  0.00691440    -0.79500
O335        O  0.90503892  0.51707581  0.99636748    -0.82900
O336        O  0.90665227  0.43220289  0.00238986    -0.80700
O337        O  0.05265578  0.43666846  0.00751017    -0.79400
O338        O  0.02443078  0.47916086  0.93135940    -0.80900
O339        O  0.94173373  0.47059197  0.92769972    -0.82800
O340        O  0.05389381  0.47986883  0.96351326    -0.79600
O341        O  0.90913421  0.46964837  0.95663680    -0.82200
O342        O  0.02008936  0.55105584  0.00468112    -0.78000
O343        O  0.02270283  0.40488408  0.00712866    -0.78000
O344        O  0.93862873  0.40257876  0.00364732    -0.77600
O345        O  0.93540027  0.54833830  0.99966792    -0.81100
O346        O  0.98113338  0.51849252  0.92899705    -0.80600
O347        O  0.98313055  0.43351307  0.93013000    -0.78900
Eu348      Eu  0.97835511  0.52859081  0.00164861     2.39800
Eu349      Eu  0.98008867  0.42493593  0.00359995     2.39600
Eu350      Eu  0.03088479  0.47816923  0.00451960     2.38400
Eu351      Eu  0.92714791  0.47523202  0.99948843     2.39900
Eu352      Eu  0.98191703  0.47621912  0.95050561     2.39800
O353        O  0.95558489  0.45016297  0.97587633    -0.93300
O354        O  0.00595689  0.50327245  0.97708903    -0.92200
C355        C  0.98138602  0.54211212  0.93634901     1.01900
C356        C  0.98142656  0.41017874  0.93816769     1.00600
C357        C  0.04375278  0.54422878  0.00663423     1.00000
C358        C  0.91194317  0.54082935  0.99748025     1.02000
C359        C  0.91478515  0.40882211  0.00345996     1.00900
C360        C  0.04603234  0.41290367  0.00848968     0.99700
C361        C  0.04754616  0.48045602  0.93968846     0.99800
C362        C  0.91807047  0.46786315  0.93376732     1.02400
H363        H  0.01829536  0.44026268  0.96806800     0.29800
O364        O  0.00694743  0.45083255  0.97799315    -1.05500
H365        H  0.94350459  0.51198178  0.96306071     0.31800
O366        O  0.95381469  0.50185843  0.97449012    -1.08000
C367        C  0.78557632  0.52539546  0.24366334     0.79800
N368        N  0.79338196  0.54540011  0.22910587    -0.78500
C369        C  0.78038976  0.55275239  0.20808679     0.82200
N370        N  0.75900234  0.53995933  0.20163615    -0.78500
C371        C  0.75057643  0.51993391  0.21561201     0.82300
N372        N  0.76418293  0.51202148  0.23653013    -0.80200
C373        C  0.27470073  0.48396474  0.20566456     0.79800
N374        N  0.25291258  0.47515509  0.19454591    -0.78500
C375        C  0.23068754  0.47422926  0.20768742     0.82200
N376        N  0.23025552  0.48223348  0.23206602    -0.78500
C377        C  0.25139699  0.49120034  0.24364211     0.82300
N378        N  0.27392307  0.49228857  0.23049940    -0.80200
C379        C  0.26746364  0.51297056  0.76654080     0.79800
N380        N  0.26167023  0.51383354  0.74105109    -0.78500
C381        C  0.23665048  0.51296776  0.73358247     0.82200
N382        N  0.21802132  0.51091068  0.75140174    -0.78500
C383        C  0.22364810  0.50946958  0.77651108     0.82300
N384        N  0.24833683  0.51069238  0.78389087    -0.80200
C385        C  0.78989939  0.51020658  0.71778683     0.79800
N386        N  0.79898257  0.49211558  0.73405562    -0.78500
C387        C  0.78551138  0.48480599  0.75485383     0.82200
N388        N  0.76289397  0.49598836  0.75960042    -0.78500
C389        C  0.75334633  0.51420702  0.74410678     0.82300
N390        N  0.76684315  0.52160788  0.72289684    -0.80200
C391        C  0.23945423  0.26893583  0.01325487     0.79800
N392        N  0.24331981  0.24301296  0.01367914    -0.78500
C393        C  0.26700021  0.23350460  0.00804209     0.82200
N394        N  0.28614405  0.24976225  0.00195466    -0.78500
C395        C  0.28251819  0.27527984  0.00155222     0.82300
N396        N  0.25919601  0.28468667  0.00727044    -0.80200
O397        O  0.52316332  0.45774391  0.04894307    -0.80600
O398        O  0.52573276  0.46564896  0.90355285    -0.82100
O399        O  0.48403137  0.42836364  0.97538154    -0.79200
O400        O  0.56737701  0.43440126  0.97132733    -0.77600
O401        O  0.59678335  0.46673510  0.97143502    -0.79300
O402        O  0.45209920  0.45798450  0.97689757    -0.80300
O403        O  0.52600996  0.43319535  0.93273091    -0.81600
O404        O  0.52644292  0.42814413  0.01709660    -0.81900
Eu405      Eu  0.52452469  0.45188450  0.97613834     2.39200
O406        O  0.54935290  0.48051223  0.95198880    -0.89400
O407        O  0.49701549  0.47498153  0.00314128    -0.93000
C408        C  0.52523572  0.43444841  0.04095508     1.01700
C409        C  0.52655609  0.44171168  0.90953679     1.01500
C410        C  0.46028275  0.43475930  0.97597562     1.01500
C411        C  0.59028970  0.44311105  0.96910864     0.99300
H412        H  0.48753129  0.46728075  0.94003486     0.29100
O413        O  0.49755100  0.47783683  0.95135422    -1.01800
H414        H  0.56047730  0.46707213  0.01321172     0.29100
O415        O  0.54936219  0.47783821  0.00321051    -1.04300
O416        O  0.52130566  0.54842538  0.90746291    -0.81600
O417        O  0.52272059  0.54244487  0.05242559    -0.81100
O418        O  0.44924797  0.50240765  0.93605449    -0.79500
O419        O  0.59566696  0.51445876  0.93687131    -0.82900
O420        O  0.59507993  0.50317583  0.02091525    -0.80700
O421        O  0.44890476  0.50002147  0.02087986    -0.79400
O422        O  0.47667495  0.57487307  0.97444936    -0.80900
O423        O  0.55888734  0.57756510  0.99283406    -0.82800
O424        O  0.44810169  0.54184638  0.97357751    -0.79600
O425        O  0.59089829  0.54794307  0.99324610    -0.82200
O426        O  0.48064565  0.50652039  0.90604560    -0.78000
O427        O  0.47979445  0.49924611  0.05163770    -0.78000
O428        O  0.56356404  0.50186259  0.05106090    -0.77600
O429        O  0.56458379  0.51121412  0.90648732    -0.81100
O430        O  0.52265981  0.57937333  0.93814204    -0.80600
O431        O  0.51863923  0.57528243  0.02387006    -0.78900
Eu432      Eu  0.52271176  0.50627097  0.92712535     2.39800
Eu433      Eu  0.52151912  0.50109870  0.03003783     2.39600
Eu434      Eu  0.47026171  0.50116709  0.97842808     2.38400
Eu435      Eu  0.57409424  0.50676367  0.97866502     2.39900
Eu436      Eu  0.51929080  0.55638262  0.98026684     2.39800
O437        O  0.54496427  0.52871113  0.00409007    -0.93300
O438        O  0.49542751  0.52914442  0.95404313    -0.92200
C439        C  0.52224634  0.57198477  0.91444386     1.01900
C440        C  0.52131068  0.56645687  0.04685274     1.00600
C441        C  0.45696011  0.50486607  0.91269974     1.00000
C442        C  0.58803344  0.51451208  0.91331371     1.02000
C443        C  0.58728557  0.50227660  0.04434659     1.00900
C444        C  0.45619603  0.49922088  0.04451459     0.99700
C445        C  0.45402566  0.56565577  0.97140511     0.99800
C446        C  0.58161905  0.57012402  0.99852675     1.02400
H447        H  0.48326963  0.53764997  0.01631925     0.29800
O448        O  0.49443427  0.52791868  0.00544161    -1.05500
H449        H  0.55779475  0.54514377  0.94413243     0.31800
O450        O  0.54750276  0.53330929  0.95375608    -1.08000
C451        C  0.71821884  0.74889995  0.01404315     0.79800
N452        N  0.73770028  0.73678679  0.00148383    -0.78500
C453        C  0.74798016  0.71504478  0.01181796     0.82200
N454        N  0.73790059  0.70515598  0.03347914    -0.78500
C455        C  0.71814002  0.71659334  0.04547213     0.82300
N456        N  0.70864209  0.73850384  0.03571092    -0.80200
C457        C  0.25327811  0.73733738  0.99003873     0.79800
N458        N  0.27193845  0.72496894  0.97722459    -0.78500
C459        C  0.26920779  0.70028921  0.97030011     0.82200
N460        N  0.24730926  0.68792464  0.97626694    -0.78500
C461        C  0.22812520  0.69981093  0.98905916     0.82300
N462        N  0.23125399  0.72476809  0.99627928    -0.80200
C463        C  0.74177591  0.24570427  0.99052978     0.79800
N464        N  0.73185601  0.26219825  0.97346921    -0.78500
C465        C  0.70849294  0.25868010  0.96338500     0.82200
N466        N  0.69463485  0.23802112  0.97056222    -0.78500
C467        C  0.70415619  0.22064911  0.98746606     0.82300
N468        N  0.72792585  0.22470950  0.99782193    -0.80200
C469        C  0.61010790  0.42470747  0.96174354    -0.03800
C470        C  0.63233995  0.43290756  0.94904193    -0.09600
C471        C  0.64889871  0.41504067  0.93819283    -0.17200
C472        C  0.64327952  0.38899472  0.94010341     0.24900
C473        C  0.62194967  0.38077432  0.95379929    -0.18900
C474        C  0.60543439  0.39846387  0.96451912    -0.07800
C475        C  0.65913629  0.36995053  0.92879371    -0.14300
C476        C  0.66927367  0.34995709  0.92421820    -0.14000
C477        C  0.67855629  0.32442736  0.92667607     0.24800
C478        C  0.66179862  0.30527027  0.93498662    -0.19400
C479        C  0.67138186  0.28250752  0.94504767    -0.07900
C480        C  0.69783285  0.27894729  0.94701066    -0.03900
C481        C  0.71435768  0.29734234  0.93639874    -0.09300
C482        C  0.70475858  0.32002909  0.92642474    -0.16900
H483        H  0.63631306  0.45305218  0.94650687     0.11200
H484        H  0.66563988  0.42150536  0.92793829     0.10500
H485        H  0.61778338  0.36058590  0.95575103     0.10500
H486        H  0.58860154  0.39158396  0.97433936     0.11000
H487        H  0.64143973  0.30873923  0.93556731     0.11100
H488        H  0.65822547  0.26873323  0.95310071     0.11000
H489        H  0.73484409  0.29498727  0.93737959     0.11200
H490        H  0.71785836  0.33484517  0.92032678     0.10000
C491        C  0.29061535  0.68663906  0.95798847    -0.03800
C492        C  0.31412135  0.69908257  0.95405563    -0.09600
C493        C  0.33522428  0.68551793  0.94521320    -0.17200
C494        C  0.33309087  0.65944023  0.94001304     0.24900
C495        C  0.30955071  0.64712655  0.94272637    -0.18900
C496        C  0.28839367  0.66064401  0.95159778    -0.07800
C497        C  0.35567889  0.64466644  0.93576149    -0.14300
C498        C  0.37445290  0.63157810  0.93687536    -0.14000
C499        C  0.39527081  0.61512578  0.94340639     0.24800
C500        C  0.39091163  0.58891118  0.94555907    -0.19400
C501        C  0.40983315  0.57302741  0.95530479    -0.07900
C502        C  0.43351255  0.58313209  0.96304577    -0.03900
C503        C  0.43790937  0.60952375  0.96037216    -0.09300
C504        C  0.41881238  0.62543654  0.95069233    -0.16900
H505        H  0.31653352  0.71907570  0.95872956     0.11200
H506        H  0.35346099  0.69512390  0.94350165     0.10500
H507        H  0.30781277  0.62683897  0.93905545     0.10500
H508        H  0.27059266  0.65050616  0.95432409     0.11000
H509        H  0.37265745  0.58079473  0.94021406     0.11100
H510        H  0.40588692  0.55276536  0.95659008     0.11000
H511        H  0.45602275  0.61787199  0.96577203     0.11200
H512        H  0.42221859  0.64580415  0.94935846     0.10000
C513        C  0.59698908  0.58705372  0.01509126    -0.03800
C514        C  0.62203328  0.58030968  0.02197601    -0.09600
C515        C  0.63486465  0.59374880  0.04109982    -0.17200
C516        C  0.62277175  0.61388386  0.05376842     0.24900
C517        C  0.59798582  0.62085968  0.04697867    -0.18900
C518        C  0.58518755  0.60760301  0.02776217    -0.07800
C519        C  0.63696468  0.62955295  0.07114978    -0.14300
C520        C  0.65070919  0.64529826  0.08062490    -0.14000
C521        C  0.66876480  0.66570699  0.08292580     0.24800
C522        C  0.66053428  0.69067989  0.07833978    -0.19400
C523        C  0.67777321  0.70894671  0.06944009    -0.07900
C524        C  0.70325396  0.70209604  0.06456365    -0.03900
C525        C  0.71202678  0.67814093  0.07291465    -0.09300
C526        C  0.69476107  0.65993992  0.08189390    -0.16900
H527        H  0.63154503  0.56435716  0.01295033     0.11200
H528        H  0.65427520  0.58855212  0.04588155     0.10500
H529        H  0.58862261  0.63670440  0.05637559     0.10500
H530        H  0.56576304  0.61301701  0.02338833     0.11000
H531        H  0.64040386  0.69528656  0.07886618     0.11100
H532        H  0.67042765  0.72734702  0.06356401     0.11000
H533        H  0.73162820  0.67244973  0.06985029     0.11200
H534        H  0.70129885  0.64060972  0.08523952     0.10000
C535        C  0.30394257  0.29250239  0.99511434    -0.03800
C536        C  0.30046438  0.31911289  0.99410204    -0.09600
C537        C  0.32106259  0.33523216  0.98883640    -0.17200
C538        C  0.34529650  0.32495347  0.98451172     0.24900
C539        C  0.34885494  0.29854165  0.98506157    -0.18900
C540        C  0.32833127  0.28239742  0.99028132    -0.07800
C541        C  0.36669870  0.34156108  0.98051370    -0.14300
C542        C  0.38417936  0.35628746  0.97829056    -0.14000
C543        C  0.40354838  0.37560281  0.97687535     0.24800
C544        C  0.42936440  0.36906169  0.97523920    -0.19400
C545        C  0.44798081  0.38824482  0.97469325    -0.07900
C546        C  0.44088436  0.41416343  0.97581756    -0.03900
C547        C  0.41482854  0.42037106  0.97728031    -0.09300
C548        C  0.39636213  0.40123616  0.97783041    -0.16900
H549        H  0.28194277  0.32750188  0.99762938     0.11200
H550        H  0.31816474  0.35570947  0.98846787     0.10500
H551        H  0.36756090  0.29043601  0.98177931     0.10500
H552        H  0.33169666  0.26201409  0.99083733     0.11000
H553        H  0.43509046  0.34920484  0.97457800     0.11100
H554        H  0.46785110  0.38278033  0.97357455     0.11000
H555        H  0.40861687  0.44005087  0.97822184     0.11200
H556        H  0.37642507  0.40645659  0.97920065     0.10000
C557        C  0.72949170  0.52626525  0.75307452    -0.03800
C558        C  0.70711271  0.51142088  0.75274448    -0.09600
C559        C  0.68800612  0.51497135  0.77116488    -0.17200
C560        C  0.69094954  0.53334494  0.79040208     0.24900
C561        C  0.71225134  0.54959311  0.78962940    -0.18900
C562        C  0.73134853  0.54608369  0.77111447    -0.07800
C563        C  0.67364895  0.53350213  0.81217744    -0.14300
C564        C  0.65949057  0.53162119  0.83048182    -0.14000
C565        C  0.64183916  0.52777245  0.85163482     0.24800
C566        C  0.61613839  0.52260684  0.84661110    -0.19400
C567        C  0.59894815  0.51828124  0.86661586    -0.07900
C568        C  0.60697993  0.51893727  0.89231794    -0.03900
C569        C  0.63289781  0.52413853  0.89729671    -0.09300
C570        C  0.65014727  0.52850161  0.87712825    -0.16900
H571        H  0.70559241  0.49533586  0.73984645     0.11200
H572        H  0.67178218  0.50214446  0.77144775     0.10500
H573        H  0.71498769  0.56382973  0.80436360     0.10500
H574        H  0.74879839  0.55707835  0.77259934     0.11000
H575        H  0.60932154  0.52182954  0.82711452     0.11100
H576        H  0.57924794  0.51436991  0.86181698     0.11000
H577        H  0.63984790  0.52487121  0.91673307     0.11200
H578        H  0.66997831  0.53236800  0.88143706     0.10000
C579        C  0.43746330  0.50596929  0.89191131    -0.03800
C580        C  0.41118136  0.50638190  0.89745599    -0.09600
C581        C  0.39309210  0.50767047  0.87775338    -0.17200
C582        C  0.40085508  0.50854428  0.85215532     0.24900
C583        C  0.42692464  0.50818136  0.84645177    -0.18900
C584        C  0.44504059  0.50692546  0.86609198    -0.07800
C585        C  0.38199209  0.51001219  0.83193866    -0.14300
C586        C  0.36473018  0.51159729  0.81661732    -0.14000
C587        C  0.34158935  0.51421553  0.80167960     0.24800
C588        C  0.32116299  0.52766576  0.81220642    -0.19400
C589        C  0.29761500  0.52822912  0.79983294    -0.07900
C590        C  0.29389685  0.51545372  0.77650114    -0.03900
C591        C  0.31479845  0.50305346  0.76517284    -0.09300
C592        C  0.33852704  0.50229549  0.77782000    -0.16900
H593        H  0.40455957  0.50582979  0.91701238     0.11200
H594        H  0.37299500  0.50802959  0.88251062     0.10500
H595        H  0.43329040  0.50890458  0.82680545     0.10500
H596        H  0.46503736  0.50669318  0.86098019     0.11000
H597        H  0.32316397  0.53704017  0.83052566     0.11100
H598        H  0.28195567  0.53809950  0.80897856     0.11000
H599        H  0.31243938  0.49289565  0.74734078     0.11200
H600        H  0.35416649  0.49177522  0.76940661     0.10000
C601        C  0.43624491  0.49818001  0.06496154    -0.03800
C602        C  0.44313845  0.49549888  0.09086503    -0.09600
C603        C  0.42448201  0.49402949  0.11001813    -0.17200
C604        C  0.39853932  0.49528016  0.10377782     0.24900
C605        C  0.39147621  0.49823473  0.07813413    -0.18900
C606        C  0.41009995  0.49966361  0.05892410    -0.07800
C607        C  0.37920567  0.49318214  0.12355363    -0.14300
C608        C  0.36257408  0.49110590  0.13954356    -0.14000
C609        C  0.34149070  0.48821246  0.15731408     0.24800
C610        C  0.32060264  0.47302041  0.15056495    -0.19400
C611        C  0.29939822  0.47125340  0.16665774    -0.07900
C612        C  0.29851905  0.48463804  0.19000978    -0.03900
C613        C  0.31992805  0.49923834  0.19712423    -0.09300
C614        C  0.34121428  0.50106569  0.18084007    -0.16900
H615        H  0.46299267  0.49431920  0.09639120     0.11200
H616        H  0.43032502  0.49176628  0.12971481     0.10500
H617        H  0.37151519  0.49928620  0.07293183     0.10500
H618        H  0.40397931  0.50184200  0.03931955     0.11000
H619        H  0.32048128  0.46284141  0.13257299     0.11100
H620        H  0.28347830  0.45957486  0.16053942     0.11000
H621        H  0.31995339  0.50976960  0.21488777     0.11200
H622        H  0.35725448  0.51286209  0.18640418     0.10000
C623        C  0.60669580  0.50145207  0.06519199    -0.03800
C624        C  0.59898935  0.50287291  0.09091493    -0.09600
C625        C  0.61684250  0.50142619  0.11070695    -0.17200
C626        C  0.64279806  0.49846595  0.10534181     0.24900
C627        C  0.65081178  0.49742190  0.07981453    -0.18900
C628        C  0.63292644  0.49893445  0.05988730    -0.07800
C629        C  0.66089955  0.49655717  0.12620478    -0.14300
C630        C  0.67506438  0.49571805  0.14448739    -0.14000
C631        C  0.69184236  0.49677643  0.16649735     0.24800
C632        C  0.68637582  0.51349114  0.18663447    -0.19400
C633        C  0.70458753  0.51818521  0.20566241    -0.07900
C634        C  0.72848956  0.50610237  0.20497162    -0.03900
C635        C  0.73301266  0.48775027  0.18593274    -0.09300
C636        C  0.71483107  0.48314016  0.16679875    -0.16900
H637        H  0.57906674  0.50502199  0.09585609     0.11200
H638        H  0.61032925  0.50246860  0.13029089     0.10500
H639        H  0.67084843  0.49529228  0.07530013     0.10500
H640        H  0.63961657  0.49786283  0.04037768     0.11000
H641        H  0.66874906  0.52424716  0.18668650     0.11100
H642        H  0.70097626  0.53311663  0.21948357     0.11000
H643        H  0.75162311  0.47895899  0.18432402     0.11200
H644        H  0.71943652  0.47022238  0.15134592     0.10000
C645        C  0.89171029  0.56102472  0.99581658    -0.03800
C646        C  0.89843022  0.58711170  0.99548983    -0.09600
C647        C  0.87979470  0.60615756  0.99313814    -0.17200
C648        C  0.85393654  0.59973317  0.99111836     0.24900
C649        C  0.84691276  0.57384741  0.99181567    -0.18900
C650        C  0.86558754  0.55468163  0.99414414    -0.07800
C651        C  0.83491387  0.61988933  0.98888436    -0.14300
C652        C  0.82018391  0.63781112  0.98825083    -0.14000
C653        C  0.80349598  0.65997057  0.99006666     0.24800
C654        C  0.81017416  0.68026629  0.00619262    -0.19400
C655        C  0.79286568  0.70007579  0.01104860    -0.07900
C656        C  0.76864262  0.70019781  0.99960361    -0.03900
C657        C  0.76248161  0.68055078  0.98235870    -0.09300
C658        C  0.77980388  0.66061020  0.97756600    -0.16900
H659        H  0.91820269  0.59291223  0.99685299     0.11200
H660        H  0.88562494  0.62601063  0.99285351     0.10500
H661        H  0.82700976  0.56844504  0.99051404     0.10500
H662        H  0.85955356  0.53490399  0.99451770     0.11000
H663        H  0.82828629  0.68009357  0.01612814     0.11100
H664        H  0.79772746  0.71440554  0.02513365     0.11000
H665        H  0.74357895  0.67962712  0.97407842     0.11200
H666        H  0.77417951  0.64506642  0.96514672     0.10000
C667        C  0.76697513  0.25282481  0.00099998    -0.03800
C668        C  0.78781189  0.25318966  0.98410477    -0.09600
C669        C  0.80827881  0.27006954  0.98785746    -0.17200
C670        C  0.80827687  0.28704437  0.00852743     0.24900
C671        C  0.78848006  0.28546688  0.02650600    -0.18900
C672        C  0.76797428  0.26851080  0.02275291    -0.07800
C673        C  0.82705681  0.30756867  0.00970093    -0.14300
C674        C  0.84212721  0.32526293  0.00923294    -0.14000
C675        C  0.86018951  0.34642891  0.00790223     0.24800
C676        C  0.88604824  0.34238702  0.01321127    -0.19400
C677        C  0.90360912  0.36259015  0.01169797    -0.07900
C678        C  0.89574028  0.38745676  0.00492632    -0.03900
C679        C  0.86968626  0.39139955  0.99965712    -0.09300
C680        C  0.85213236  0.37106910  0.00105010    -0.16900
H681        H  0.78707975  0.24215260  0.96664425     0.11200
H682        H  0.82327068  0.27103358  0.97367549     0.10500
H683        H  0.78802503  0.29849296  0.04254057     0.10500
H684        H  0.75173320  0.26949273  0.03547419     0.11000
H685        H  0.89270431  0.32354382  0.01851064     0.11100
H686        H  0.92341260  0.35869975  0.01602481     0.11000
H687        H  0.86288250  0.41014915  0.99426655     0.11200
H688        H  0.83224533  0.37459399  0.99675343     0.10000
C689        C  0.06376186  0.56462534  0.00886499    -0.03800
C690        C  0.05726072  0.59074845  0.00867426    -0.09600
C691        C  0.07618781  0.60972423  0.01035183    -0.17200
C692        C  0.10200035  0.60306244  0.01230016     0.24900
C693        C  0.10863102  0.57714040  0.01290113    -0.18900
C694        C  0.08976926  0.55814747  0.01122965    -0.07800
C695        C  0.12173334  0.62265885  0.01230666    -0.14300
C696        C  0.13893691  0.63813980  0.01049923    -0.14000
C697        C  0.16094081  0.65438432  0.00563148     0.24800
C698        C  0.18051684  0.64501273  0.99021654    -0.19400
C699        C  0.20194015  0.65995122  0.98491573    -0.07900
C700        C  0.20450456  0.68483733  0.99489820    -0.03900
C701        C  0.18466115  0.69438784  0.01029778    -0.09300
C702        C  0.16302749  0.67922940  0.01564049    -0.16900
H703        H  0.03754089  0.59658336  0.00700196     0.11200
H704        H  0.07067865  0.62964006  0.00978407     0.10500
H705        H  0.12846333  0.57155918  0.01432194     0.10500
H706        H  0.09564789  0.53834248  0.01157674     0.11000
H707        H  0.17924944  0.62598333  0.98220564     0.11100
H708        H  0.21657039  0.65179046  0.97287122     0.11000
H709        H  0.18591493  0.71340060  0.01830458     0.11200
H710        H  0.14800171  0.68686529  0.02755727     0.10000
C711        C  0.06677354  0.39364452  0.01162198    -0.03800
C712        C  0.06162867  0.36725339  0.01035720    -0.09600
C713        C  0.08132271  0.34932531  0.01310880    -0.17200
C714        C  0.10648769  0.35738977  0.01727470     0.24900
C715        C  0.11169715  0.38358577  0.01898449    -0.18900
C716        C  0.09209211  0.40152648  0.01617522    -0.07800
C717        C  0.12709836  0.33897348  0.01908360    -0.14300
C718        C  0.14513774  0.32450282  0.01999973    -0.14000
C719        C  0.16807605  0.30897919  0.02061380     0.24800
C720        C  0.16832816  0.28396867  0.01086891    -0.19400
C721        C  0.19123279  0.26996366  0.00984785    -0.07900
C722        C  0.21421710  0.28095950  0.01830314    -0.03900
C723        C  0.21351326  0.30571892  0.02881162    -0.09300
C724        C  0.19073334  0.31951629  0.02999389    -0.16900
H725        H  0.04242237  0.36042191  0.00701480     0.11200
H726        H  0.07693325  0.32915461  0.01176496     0.10500
H727        H  0.13100430  0.39019596  0.02227233     0.10500
H728        H  0.09683706  0.42161081  0.01754477     0.11000
H729        H  0.15097700  0.27554836  0.00344063     0.11100
H730        H  0.19119670  0.25113884  0.00132367     0.11000
H731        H  0.23085265  0.31477075  0.03550427     0.11200
H732        H  0.19096502  0.33874923  0.03760409     0.10000
C733        C  0.90020927  0.46087049  0.91312366    -0.03800
C734        C  0.90968715  0.45296077  0.88927589    -0.09600
C735        C  0.89310108  0.44448936  0.87029914    -0.17200
C736        C  0.86687974  0.44378207  0.87487366     0.24900
C737        C  0.85717582  0.45180309  0.89838524    -0.18900
C738        C  0.87374835  0.46019996  0.91748666    -0.07800
C739        C  0.84987969  0.43739224  0.85449969    -0.14300
C740        C  0.83617917  0.43646082  0.83618466    -0.14000
C741        C  0.82108439  0.44220159  0.81421926     0.24800
C742        C  0.79644762  0.45162491  0.81765562    -0.19400
C743        C  0.78409464  0.46392708  0.79761816    -0.07900
C744        C  0.79644315  0.46724874  0.77397690    -0.03900
C745        C  0.82041081  0.45593878  0.77011753    -0.09300
C746        C  0.83269589  0.44350097  0.79022320    -0.16900
H747        H  0.92995447  0.45297985  0.88533665     0.11200
H748        H  0.90070973  0.43873082  0.85196761     0.10500
H749        H  0.83681183  0.45179058  0.90185854     0.10500
H750        H  0.86585625  0.46611382  0.93562759     0.11000
H751        H  0.78747321  0.45102115  0.83627109     0.11100
H752        H  0.76556196  0.47224953  0.80124380     0.11000
H753        H  0.83029053  0.45797498  0.75209458     0.11200
H754        H  0.85192719  0.43648106  0.78753021     0.10000
C755        C  0.06809682  0.48323098  0.92046967    -0.03800
C756        C  0.06247921  0.49241067  0.89584344    -0.09600
C757        C  0.08184362  0.49562312  0.87779845    -0.17200
C758        C  0.10705577  0.48956069  0.88401023     0.24900
C759        C  0.11284157  0.48029700  0.90839594    -0.18900
C760        C  0.09351939  0.47725093  0.92656532    -0.07800
C761        C  0.12697270  0.49303805  0.86541434    -0.14300
C762        C  0.14364736  0.49610667  0.84986506    -0.14000
C763        C  0.16372437  0.49977787  0.83149314     0.24800
C764        C  0.18908632  0.49523500  0.83840373    -0.19400
C765        C  0.20864200  0.49868737  0.82061463    -0.07900
C766        C  0.20304187  0.50656121  0.79557864    -0.03900
C767        C  0.17748217  0.51117157  0.78881856    -0.09300
C768        C  0.15797361  0.50785758  0.80669847    -0.16900
H769        H  0.04315466  0.49745630  0.89061469     0.11200
H770        H  0.07715396  0.50290341  0.85902398     0.10500
H771        H  0.13230118  0.47552090  0.91339942     0.10500
H772        H  0.09844509  0.47009171  0.94531062     0.11000
H773        H  0.19374557  0.48895198  0.85753754     0.11100
H774        H  0.22809075  0.49485762  0.82637724     0.11000
H775        H  0.17254790  0.51738932  0.76974063     0.11200
H776        H  0.13841287  0.51150602  0.80115839     0.10000
C777        C  0.06035588  0.47231705  0.09067475    -0.03800
C778        C  0.05295083  0.46450934  0.11530131    -0.09600
C779        C  0.07131003  0.45970159  0.13397725    -0.17200
C780        C  0.09713312  0.46275130  0.12818932     0.24900
C781        C  0.10463929  0.47085890  0.10392515    -0.18900
C782        C  0.08639856  0.47561045  0.08524891    -0.07800
C783        C  0.11631455  0.45821648  0.14698609    -0.14300
C784        C  0.13496073  0.45655471  0.16011331    -0.14000
C785        C  0.15925201  0.45768868  0.17238483     0.24800
C786        C  0.18124504  0.45977509  0.15742057    -0.19400
C787        C  0.20486029  0.46398780  0.16891033    -0.07900
C788        C  0.20659704  0.46634687  0.19551778    -0.03900
C789        C  0.18445709  0.46318995  0.21046108    -0.09300
C790        C  0.16088473  0.45898176  0.19891777    -0.16900
H791        H  0.03305024  0.46160975  0.11999475     0.11200
H792        H  0.06540155  0.45351524  0.15279800     0.10500
H793        H  0.12464889  0.47341164  0.09941010     0.10500
H794        H  0.09273189  0.48163052  0.06652041     0.11000
H795        H  0.18000345  0.45898522  0.13680006     0.11100
H796        H  0.22150510  0.46641089  0.15693093     0.11000
H797        H  0.18517649  0.46474782  0.23104957     0.11200
H798        H  0.14390276  0.45752710  0.21060454     0.10000
C799        C  0.89518360  0.50683228  0.07798370    -0.03800
C800        C  0.87521481  0.52057271  0.06640645    -0.09600
C801        C  0.86366292  0.54083680  0.07921194    -0.17200
C802        C  0.87190316  0.54759385  0.10365431     0.24900
C803        C  0.89083958  0.53331509  0.11580470    -0.18900
C804        C  0.90240218  0.51304387  0.10309422    -0.07800
C805        C  0.85901517  0.56730572  0.11743032    -0.14300
C806        C  0.84522101  0.57911258  0.13134531    -0.14000
C807        C  0.82589253  0.58377452  0.14996298     0.24800
C808        C  0.83294916  0.58804204  0.17533534    -0.19400
C809        C  0.81630065  0.58121319  0.19498041    -0.07900
C810        C  0.79275599  0.56966249  0.18922283    -0.03900
C811        C  0.78443124  0.56914596  0.16370749    -0.09300
C812        C  0.80106310  0.57600033  0.14415904    -0.16900
H813        H  0.86943812  0.51664195  0.04696121     0.11200
H814        H  0.84854141  0.55142841  0.06993504     0.10500
H815        H  0.89685510  0.53801409  0.13501705     0.10500
H816        H  0.91782935  0.50304839  0.11250428     0.11000
H817        H  0.85222115  0.59387134  0.18001258     0.11100
H818        H  0.82303093  0.58229548  0.21448389     0.11000
H819        H  0.76631562  0.56063232  0.15856683     0.11200
H820        H  0.79554275  0.57234929  0.12456464     0.10000
C821        C  0.52823236  0.42272314  0.88829905    -0.03800
C822        C  0.53084238  0.39645173  0.89347365    -0.09600
C823        C  0.53229596  0.37863249  0.87355746    -0.17200
C824        C  0.53117245  0.38661104  0.84803828     0.24900
C825        C  0.52867735  0.41270577  0.84266146    -0.18900
C826        C  0.52725775  0.43059674  0.86256307    -0.07800
C827        C  0.53213261  0.36784218  0.82762980    -0.14300
C828        C  0.53240456  0.35043930  0.81232432    -0.14000
C829        C  0.53184157  0.32694264  0.79757990     0.24800
C830        C  0.52453575  0.32637051  0.77173498    -0.19400
C831        C  0.52106320  0.30282709  0.75905299    -0.07900
C832        C  0.52464279  0.27967744  0.77222948    -0.03900
C833        C  0.53331931  0.28067530  0.79765885    -0.09300
C834        C  0.53687241  0.30395588  0.81012186    -0.16900
H835        H  0.53175359  0.38959418  0.91294284     0.11200
H836        H  0.53419746  0.35854231  0.87810218     0.10500
H837        H  0.52772378  0.41924538  0.82307698     0.10500
H838        H  0.52526448  0.45060090  0.85774617     0.11000
H839        H  0.52057315  0.34400852  0.76170547     0.11100
H840        H  0.51416754  0.30271990  0.73958418     0.11000
H841        H  0.53639603  0.26325596  0.80837303     0.11200
H842        H  0.54258641  0.30395287  0.82999301     0.10000
C843        C  0.52342783  0.59104569  0.89310353    -0.03800
C844        C  0.51997938  0.58261825  0.86770599    -0.09600
C845        C  0.52257765  0.59934208  0.84705515    -0.17200
C846        C  0.52866860  0.62499274  0.85110152     0.24900
C847        C  0.53165453  0.63385773  0.87625146    -0.18900
C848        C  0.52904380  0.61704347  0.89711472    -0.07800
C849        C  0.53190634  0.64195829  0.82937650    -0.14300
C850        C  0.53423945  0.65642006  0.81141301    -0.14000
C851        C  0.53593978  0.67589399  0.79174838     0.24800
C852        C  0.52494341  0.67230760  0.76753994    -0.19400
C853        C  0.52215984  0.69308629  0.75072416    -0.07900
C854        C  0.53028993  0.71758198  0.75804720    -0.03900
C855        C  0.54327028  0.72044682  0.78134371    -0.09300
C856        C  0.54609113  0.69979810  0.79801223    -0.16900
H857        H  0.51547857  0.56285805  0.86360805     0.11200
H858        H  0.52003669  0.59213750  0.82784537     0.10500
H859        H  0.53625985  0.65372144  0.87973164     0.10500
H860        H  0.53186866  0.62426823  0.91625361     0.11000
H861        H  0.51696753  0.65393756  0.76236658     0.11100
H862        H  0.51147609  0.69053249  0.73322329     0.11000
H863        H  0.54913822  0.73924589  0.78769641     0.11200
H864        H  0.55459920  0.70295319  0.81658449     0.10000
C865        C  0.52080739  0.70660625  0.20833482    -0.03800
C866        C  0.50677644  0.68372580  0.20873521    -0.09600
C867        C  0.51125609  0.66466048  0.19053196    -0.17200
C868        C  0.52959926  0.66833638  0.17142382     0.24900
C869        C  0.54474466  0.69045418  0.17191628    -0.18900
C870        C  0.54039317  0.70946992  0.19028729    -0.07800
C871        C  0.53094151  0.65076602  0.15004121    -0.14300
C872        C  0.53033391  0.63652123  0.13179124    -0.14000
C873        C  0.52839127  0.61917700  0.11024939     0.24800
C874        C  0.52537604  0.62848016  0.08530907    -0.19400
C875        C  0.52288711  0.61152015  0.06465905    -0.07900
C876        C  0.52335464  0.58489342  0.06859397    -0.03900
C877        C  0.52651777  0.57583350  0.09376272    -0.09300
C878        C  0.52895654  0.59277311  0.11429800    -0.16900
H879        H  0.49108800  0.68141834  0.22198385     0.11200
H880        H  0.49932803  0.64775139  0.19043231     0.10500
H881        H  0.55890880  0.69368566  0.15722560     0.10500
H882        H  0.55084483  0.72728365  0.18905288     0.11000
H883        H  0.52486731  0.64886019  0.08181211     0.11100
H884        H  0.52064505  0.61927257  0.04564322     0.11000
H885        H  0.52714035  0.55554880  0.09769985     0.11200
H886        H  0.53122592  0.58521523  0.13340806     0.10000
C887        C  0.52651495  0.41373162  0.06070564    -0.03800
C888        C  0.53135188  0.38808550  0.05403360    -0.09600
C889        C  0.53322592  0.36904236  0.07292442    -0.17200
C890        C  0.53026310  0.37521367  0.09883672     0.24900
C891        C  0.52507253  0.40055411  0.10553289    -0.18900
C892        C  0.52324613  0.41956703  0.08676407    -0.07800
C893        C  0.53234565  0.35576588  0.11863155    -0.14300
C894        C  0.53328815  0.33962554  0.13530961    -0.14000
C895        C  0.53266403  0.31906428  0.15404011     0.24800
C896        C  0.53189578  0.32394308  0.18045169    -0.19400
C897        C  0.52820818  0.30380291  0.19800580    -0.07900
C898        C  0.52498416  0.27859248  0.18926615    -0.03900
C899        C  0.52720361  0.27388600  0.16288489    -0.09300
C900        C  0.53101715  0.29382221  0.14554837    -0.16900
H901        H  0.53393093  0.38274798  0.03424932     0.11200
H902        H  0.53710104  0.34952885  0.06730294     0.10500
H903        H  0.52253453  0.40570092  0.12538159     0.10500
H904        H  0.51933884  0.43894175  0.09276907     0.11000
H905        H  0.53322066  0.34336668  0.18741260     0.11100
H906        H  0.52648386  0.30810064  0.21813330     0.11000
H907        H  0.52508359  0.25469867  0.15547009     0.11200
H908        H  0.53172067  0.28957937  0.12533255     0.10000
C909        C  0.56305487  0.06154125  0.01154994    -0.03800
C910        C  0.58808336  0.05454327  0.01846571    -0.09600
C911        C  0.60766300  0.07285405  0.01968567    -0.17200
C912        C  0.60268934  0.09852115  0.01393400     0.24900
C913        C  0.57772424  0.10572867  0.00759268    -0.18900
C914        C  0.55809073  0.08749116  0.00651206    -0.07800
C915        C  0.62319156  0.11731149  0.01331601    -0.14300
C916        C  0.63922399  0.13395921  0.01099874    -0.14000
C917        C  0.65612391  0.15541516  0.00568539     0.24800
C918        C  0.64779570  0.17458540  0.98911762    -0.19400
C919        C  0.66343441  0.19548563  0.98344974    -0.07900
C920        C  0.68800334  0.19792607  0.99421752    -0.03900
C921        C  0.69639383  0.17853569  0.01088974    -0.09300
C922        C  0.68056721  0.15744312  0.01656495    -0.16900
H923        H  0.59261394  0.03483795  0.02275662     0.11200
H924        H  0.62678130  0.06688272  0.02470087     0.10500
H925        H  0.57348307  0.12545225  0.00305120     0.10500
H926        H  0.53913839  0.09364978  0.00113302     0.11000
H927        H  0.62905750  0.17339811  0.98047796     0.11100
H928        H  0.65608107  0.20980343  0.97050565     0.11000
H929        H  0.71513061  0.17962947  0.01948660     0.11200
H930        H  0.68740371  0.14276062  0.02940280     0.10000
C931        C  0.38906609  0.89330782  0.99975350    -0.03800
C932        C  0.36367261  0.90214465  0.99940163    -0.09600
C933        C  0.34325568  0.88517504  0.00157915    -0.17200
C934        C  0.34770615  0.85902199  0.00411373     0.24900
C935        C  0.37283967  0.84987634  0.00423536    -0.18900
C936        C  0.39342759  0.86689754  0.00208396    -0.07800
C937        C  0.32637296  0.84167750  0.00601271    -0.14300
C938        C  0.30863990  0.82692341  0.00644984    -0.14000
C939        C  0.28896400  0.80767100  0.00493422     0.24800
C940        C  0.27550313  0.80431878  0.98210351    -0.19400
C941        C  0.26057313  0.78245277  0.97842901    -0.07900
C942        C  0.25872199  0.76381716  0.99763314    -0.03900
C943        C  0.27061159  0.76828063  0.02122311    -0.09300
C944        C  0.28567455  0.79011720  0.02485917    -0.16900
H945        H  0.35944776  0.92229831  0.99763608     0.11200
H946        H  0.32395035  0.89250352  0.00131603     0.10500
H947        H  0.37651910  0.82961121  0.00606822     0.10500
H948        H  0.41266287  0.85943290  0.00253673     0.11000
H949        H  0.27802481  0.81762410  0.96646272     0.11100
H950        H  0.25233721  0.77897500  0.95979472     0.11000
H951        H  0.27026336  0.75373324  0.03591620     0.11200
H952        H  0.29616377  0.79235288  0.04252664     0.10000
C953        C  0.70466978  0.77156458  0.00387196    -0.03800
C954        C  0.69931823  0.79180743  0.02067287    -0.09600
C955        C  0.67989295  0.80933279  0.01529041    -0.17200
C956        C  0.66522157  0.80688951  0.99308253     0.24900
C957        C  0.67144703  0.78765806  0.97545819    -0.18900
C958        C  0.69110721  0.77013844  0.98077795    -0.07800
C959        C  0.64295405  0.82311074  0.98952308    -0.14300
C960        C  0.62449563  0.83712290  0.98861225    -0.14000
C961        C  0.60350904  0.85530997  0.98950825     0.24800
C962        C  0.57808990  0.84763375  0.98574914    -0.19400
C963        C  0.55802786  0.86538441  0.98798530    -0.07900
C964        C  0.56304217  0.89117242  0.99401682    -0.03900
C965        C  0.58869216  0.89862759  0.99731855    -0.09300
C966        C  0.60858488  0.88093562  0.99514682    -0.16900
H967        H  0.70909738  0.79304431  0.03884168     0.11200
H968        H  0.67548137  0.82403800  0.02912541     0.10500
H969        H  0.66032810  0.78543833  0.95818865     0.10500
H970        H  0.69428896  0.75433114  0.96786297     0.11000
H971        H  0.57373509  0.82789899  0.98133455     0.11100
H972        H  0.53863406  0.85890860  0.98504204     0.11000
H973        H  0.59349883  0.91821015  0.00187932     0.11200
H974        H  0.62803035  0.88726860  0.99814970     0.10000
C975        C  0.39032668  0.06244707  0.00711282    -0.03800
C976        C  0.39663541  0.08855700  0.00848234    -0.09600
C977        C  0.37752124  0.10718557  0.01006837    -0.17200
C978        C  0.35171711  0.10016715  0.01037197     0.24900
C979        C  0.34521553  0.07422561  0.00927111    -0.18900
C980        C  0.36430113  0.05553895  0.00767341    -0.07800
C981        C  0.33209700  0.11969202  0.01123832    -0.14300
C982        C  0.31674623  0.13701272  0.01119578    -0.14000
C983        C  0.30017580  0.15917756  0.00982950     0.24800
C984        C  0.29813585  0.17266552  0.98685954    -0.19400
C985        C  0.28491951  0.19583519  0.98591750    -0.07900
C986        C  0.27325693  0.20594125  0.00785445    -0.03900
C987        C  0.27427107  0.19181162  0.03064231    -0.09300
C988        C  0.28768989  0.16855352  0.03161647    -0.16900
H989        H  0.41636517  0.09466052  0.00821780     0.11200
H990        H  0.38290398  0.12714556  0.01090402     0.10500
H991        H  0.32538135  0.06842192  0.00949158     0.10500
H992        H  0.35861429  0.03567267  0.00679253     0.11000
H993        H  0.30778085  0.16588331  0.96989488     0.11100
H994        H  0.28506481  0.20670393  0.96832271     0.11000
H995        H  0.26629363  0.19959805  0.04802340     0.11200
H996        H  0.28927864  0.15849554  0.04960625     0.10000
C997        C  0.47633927  0.06546164  0.91984619    -0.03800
C998        C  0.47010277  0.05901053  0.89449181    -0.09600
C999        C  0.46883764  0.07777302  0.87563888    -0.17200
C1000       C  0.47385082  0.10323564  0.88178364     0.24900
C1001       C  0.48033064  0.10987953  0.90683910    -0.18900
C1002       C  0.48148693  0.09112246  0.92582464    -0.07800
C1003       C  0.47277595  0.12248132  0.86228637    -0.14300
C1004       C  0.47310335  0.13881081  0.84611951    -0.14000
C1005       C  0.47593449  0.15860107  0.82736223     0.24800
C1006       C  0.48251464  0.18329551  0.83509841    -0.19400
C1007       C  0.48838462  0.20192105  0.81694504    -0.07900
C1008       C  0.48783469  0.19600376  0.79076887    -0.03900
C1009       C  0.48004769  0.17140933  0.78316444    -0.09300
C1010       C  0.47419829  0.15281351  0.80137778    -0.16900
H1011       H  0.46591485  0.03945901  0.88920976     0.11200
H1012       H  0.46392317  0.07241189  0.85628610     0.10500
H1013       H  0.48445530  0.12956226  0.91169576     0.10500
H1014       H  0.48650979  0.09666765  0.94507938     0.11000
H1015       H  0.48393270  0.18792565  0.85519330     0.11100
H1016       H  0.49419879  0.22065722  0.82347507     0.11000
H1017       H  0.47926959  0.16624392  0.76318018     0.11200
H1018       H  0.46913092  0.13372748  0.79520249     0.10000
C1019       C  0.47393454  0.78894747  0.77313514    -0.03800
C1020       C  0.46981061  0.81519321  0.76934022    -0.09600
C1021       C  0.45906056  0.82992564  0.78869792    -0.17200
C1022       C  0.45204691  0.81847412  0.81177035     0.24900
C1023       C  0.45459016  0.79214103  0.81506312    -0.18900
C1024       C  0.46547439  0.77740892  0.79583054    -0.07800
C1025       C  0.44668283  0.83412333  0.83339702    -0.14300
C1026       C  0.44717326  0.84758310  0.85188094    -0.14000
C1027       C  0.45256447  0.86421095  0.87279123     0.24800
C1028       C  0.46334083  0.85447603  0.89520257    -0.19400
C1029       C  0.47063723  0.87107185  0.91474703    -0.07900
C1030       C  0.46744754  0.89755745  0.91181541    -0.03900
C1031       C  0.45683242  0.90707075  0.88906096    -0.09300
C1032       C  0.44938874  0.89047286  0.86971884    -0.16900
H1033       H  0.47629181  0.82461096  0.75211664     0.11200
H1034       H  0.45753849  0.85041134  0.78621238     0.10500
H1035       H  0.44950512  0.78322940  0.83302131     0.10500
H1036       H  0.46830073  0.75720442  0.79918331     0.11000
H1037       H  0.46628296  0.83412518  0.89746100     0.11100
H1038       H  0.47872099  0.86323482  0.93207228     0.11000
H1039       H  0.45377867  0.92734159  0.88636239     0.11200
H1040       H  0.44139015  0.89814426  0.85226501     0.10000
C1041       C  0.45906024  0.88785888  0.08077104    -0.03800
C1042       C  0.44951879  0.86441599  0.07163841    -0.09600
C1043       C  0.43809155  0.84701332  0.08833971    -0.17200
C1044       C  0.43603610  0.85287304  0.11427851     0.24900
C1045       C  0.44609779  0.87575911  0.12362875    -0.18900
C1046       C  0.45749342  0.89316766  0.10702754    -0.07800
C1047       C  0.42606749  0.83452830  0.13196045    -0.14300
C1048       C  0.42308827  0.81936594  0.14890491    -0.14000
C1049       C  0.42832270  0.80242257  0.16966852     0.24800
C1050       C  0.43516021  0.81285785  0.19325781    -0.19400
C1051       C  0.44936282  0.79843793  0.21053902    -0.07900
C1052       C  0.45700834  0.77348473  0.20421843    -0.03900
C1053       C  0.44757040  0.76228508  0.18171667    -0.09300
C1054       C  0.43337955  0.77676049  0.16447243    -0.16900
H1055       H  0.45020002  0.85981419  0.05151196     0.11200
H1056       H  0.43085135  0.82906125  0.08103584     0.10500
H1057       H  0.44514718  0.88014792  0.14380807     0.10500
H1058       H  0.46462883  0.91098811  0.11471408     0.11000
H1059       H  0.43160088  0.83282803  0.19731062     0.11100
H1060       H  0.45608626  0.80757996  0.22780546     0.11000
H1061       H  0.45284767  0.74302848  0.17641657     0.11200
H1062       H  0.42841812  0.76861377  0.14613108     0.10000
C1063       C  0.46776082  0.05719031  0.09109148    -0.03800
C1064       C  0.45901790  0.04986165  0.11543971    -0.09600
C1065       C  0.45350177  0.06836001  0.13387100    -0.17200
C1066       C  0.45666292  0.09424797  0.12807676     0.24900
C1067       C  0.46574459  0.10162001  0.10413092    -0.18900
C1068       C  0.47120958  0.08327763  0.08574539    -0.07800
C1069       C  0.45187344  0.11363906  0.14669566    -0.14300
C1070       C  0.45142904  0.13225679  0.16004630    -0.14000
C1071       C  0.45631745  0.15561703  0.17333322     0.24800
C1072       C  0.46092545  0.17790888  0.15931941    -0.19400
C1073       C  0.47119188  0.19938096  0.17130960    -0.07900
C1074       C  0.47699212  0.19868263  0.19747130    -0.03900
C1075       C  0.47073171  0.17668419  0.21166886    -0.09300
C1076       C  0.46057979  0.15523585  0.19961201    -0.16900
H1077       H  0.45600959  0.02993295  0.12008636     0.11200
H1078       H  0.44673869  0.06250992  0.15251049     0.10500
H1079       H  0.46858172  0.12162977  0.09964138     0.10500
H1080       H  0.47799121  0.08958927  0.06727415     0.11000
H1081       H  0.45790310  0.17823022  0.13887032     0.11100
H1082       H  0.47569141  0.21601393  0.15987438     0.11000
H1083       H  0.47484607  0.17550657  0.23187759     0.11200
H1084       H  0.45733023  0.13796525  0.21054142     0.10000
C1085       C  0.38717347  0.96893944  0.08482660    -0.03800
C1086       C  0.39219216  0.96692344  0.11119148    -0.09600
C1087       C  0.37214738  0.96539824  0.12901736    -0.17200
C1088       C  0.34660363  0.96579559  0.12096766     0.24900
C1089       C  0.34143759  0.96735143  0.09476599    -0.18900
C1090       C  0.36141165  0.96888043  0.07692942    -0.07800
C1091       C  0.32577672  0.96545038  0.13949720    -0.14300
C1092       C  0.30854010  0.96618116  0.15507725    -0.14000
C1093       C  0.28868513  0.96855728  0.17447187     0.24800
C1094       C  0.27557481  0.99169745  0.17746688    -0.19400
C1095       C  0.25927818  0.99547652  0.19838808    -0.07900
C1096       C  0.25554330  0.97612268  0.21662901    -0.03900
C1097       C  0.26742424  0.95239379  0.21267163    -0.09300
C1098       C  0.28384239  0.94863498  0.19177542    -0.16900
H1099       H  0.41163693  0.96675727  0.11811791     0.11200
H1100       H  0.37661781  0.96417941  0.14915584     0.10500
H1101       H  0.32189534  0.96766239  0.08807609     0.10500
H1102       H  0.35658795  0.97024464  0.05689240     0.11000
H1103       H  0.27909940  0.00739298  0.16446329     0.11100
H1104       H  0.25126636  0.01427086  0.20150188     0.11000
H1105       H  0.26583668  0.93754139  0.22697955     0.11200
H1106       H  0.29386755  0.93066434  0.18996815     0.10000
C1107       C  0.68977668  0.99389789  0.78247635    -0.03800
C1108       C  0.69294930  0.97167620  0.79728356    -0.09600
C1109       C  0.67599482  0.96618573  0.81744666    -0.17200
C1110       C  0.65578320  0.98287913  0.82305661     0.24900
C1111       C  0.65248570  0.00476923  0.80823996    -0.18900
C1112       C  0.66916741  0.01020667  0.78825062    -0.07800
C1113       C  0.63836896  0.97838997  0.84406873    -0.14300
C1114       C  0.62257360  0.97741916  0.86092583    -0.14000
C1115       C  0.60283041  0.97797888  0.88028904     0.24800
C1116       C  0.57708259  0.97812401  0.87316614    -0.19400
C1117       C  0.55788258  0.97873952  0.89175932    -0.07900
C1118       C  0.56405032  0.97923258  0.91793093    -0.03900
C1119       C  0.59003007  0.97945710  0.92489300    -0.09300
C1120       C  0.60920682  0.97886670  0.90623437    -0.16900
H1121       H  0.70839193  0.95859463  0.79326713     0.11200
H1122       H  0.67873657  0.94906389  0.82870655     0.10500
H1123       H  0.63700995  0.01785416  0.81225137     0.10500
H1124       H  0.66591744  0.02752194  0.77744598     0.11000
H1125       H  0.57180936  0.97768284  0.85318616     0.11100
H1126       H  0.53818442  0.97864277  0.88558145     0.11000
H1127       H  0.59559395  0.97996168  0.94477787     0.11200
H1128       H  0.62902154  0.97901959  0.91207137     0.10000
C1129       C  0.27191917  0.97623747  0.77431334    -0.03800
C1130       C  0.28435011  0.95536755  0.78572112    -0.09600
C1131       C  0.29760090  0.95818786  0.80871415    -0.17200
C1132       C  0.29886168  0.98198147  0.82077836     0.24900
C1133       C  0.28503726  0.00255239  0.81048530    -0.18900
C1134       C  0.27158827  0.99968765  0.78736545    -0.07800
C1135       C  0.31635311  0.98539229  0.84205081    -0.14300
C1136       C  0.33262879  0.98647244  0.85851876    -0.14000
C1137       C  0.35285408  0.98640973  0.87752061     0.24800
C1138       C  0.34715135  0.99015382  0.90334351    -0.19400
C1139       C  0.36648169  0.98920955  0.92180681    -0.07900
C1140       C  0.39202979  0.98449928  0.91486993    -0.03900
C1141       C  0.39768968  0.98111849  0.88880946    -0.09300
C1142       C  0.37825826  0.98197992  0.87035071    -0.16900
H1143       H  0.28541132  0.93725898  0.77579713     0.11200
H1144       H  0.30814733  0.94210385  0.81628500     0.10500
H1145       H  0.28583126  0.02113280  0.81951440     0.10500
H1146       H  0.26281950  0.01625189  0.77866774     0.11000
H1147       H  0.32767795  0.99359592  0.90928160     0.11100
H1148       H  0.36133190  0.99207323  0.94159983     0.11000
H1149       H  0.41705148  0.97739230  0.88270456     0.11200
H1150       H  0.38303944  0.97896360  0.85047724     0.10000
C1151       C  0.52401228  0.09351828  0.39816445    -0.03800
C1152       C  0.53349828  0.09024404  0.37325208    -0.09600
C1153       C  0.53528741  0.11111483  0.35652625    -0.17200
C1154       C  0.52752876  0.13550304  0.36438508     0.24900
C1155       C  0.51800347  0.13883637  0.38909385    -0.18900
C1156       C  0.51634234  0.11809781  0.40585260    -0.07800
C1157       C  0.52889186  0.15704215  0.34706821    -0.14300
C1158       C  0.52926053  0.17483401  0.33227689    -0.14000
C1159       C  0.52847990  0.19501365  0.31334311     0.24800
C1160       C  0.54788350  0.19717388  0.29506757    -0.19400
C1161       C  0.54508145  0.21374172  0.27419152    -0.07900
C1162       C  0.52279756  0.22832302  0.27126007    -0.03900
C1163       C  0.50420874  0.22731252  0.29058550    -0.09300
C1164       C  0.50705667  0.21085717  0.31150013    -0.16900
H1165       H  0.53985094  0.07166529  0.36681542     0.11200
H1166       H  0.54271562  0.10822465  0.33746601     0.10500
H1167       H  0.51183246  0.15751018  0.39544355     0.10500
H1168       H  0.50891612  0.12132382  0.42485317     0.11000
H1169       H  0.56443923  0.18487268  0.29605664     0.11100
H1170       H  0.55911194  0.21320026  0.25904254     0.11000
H1171       H  0.48637614  0.23746057  0.28825444     0.11200
H1172       H  0.49176685  0.20929085  0.32531271     0.10000
C1173       C  0.52044657  0.77822105  0.27148100    -0.03800
C1174       C  0.54121015  0.79476383  0.26763034    -0.09600
C1175       C  0.54565736  0.81510499  0.28454654    -0.17200
C1176       C  0.52939749  0.81904893  0.30544314     0.24900
C1177       C  0.50966037  0.80162522  0.31013359    -0.18900
C1178       C  0.50515857  0.78145540  0.29323148    -0.07800
C1179       C  0.53163700  0.84169274  0.32117538    -0.14300
C1180       C  0.53168118  0.86018427  0.33506522    -0.14000
C1181       C  0.53032463  0.88081771  0.35343218     0.24800
C1182       C  0.53631351  0.90607314  0.34666588    -0.19400
C1183       C  0.53493416  0.92571322  0.36492021    -0.07900
C1184       C  0.52766722  0.92030114  0.39023890    -0.03900
C1185       C  0.52158057  0.89487225  0.39666385    -0.09300
C1186       C  0.52281757  0.87542732  0.37845661    -0.16900
H1187       H  0.55270862  0.79316653  0.25054765     0.11200
H1188       H  0.56096680  0.82844624  0.28062400     0.10500
H1189       H  0.49690663  0.80438022  0.32615147     0.10500
H1190       H  0.48862076  0.76938167  0.29616904     0.11000
H1191       H  0.54211673  0.91057354  0.32734635     0.11100
H1192       H  0.53985753  0.94500601  0.35932377     0.11000
H1193       H  0.51573323  0.88992220  0.41585246     0.11200
H1194       H  0.51798158  0.85607322  0.38397606     0.10000
C1195       C  0.51221952  0.21364084  0.70296509    -0.03800
C1196       C  0.49342091  0.19662599  0.69398141    -0.09600
C1197       C  0.49780648  0.18115865  0.67272458    -0.17200
C1198       C  0.52109680  0.18221979  0.65980667     0.24900
C1199       C  0.53948211  0.20024609  0.66758650    -0.18900
C1200       C  0.53503874  0.21595478  0.68902576    -0.07800
C1201       C  0.52603941  0.16361234  0.63975594    -0.14300
C1202       C  0.52770321  0.14664625  0.62399314    -0.14000
C1203       C  0.52762511  0.12619586  0.60512716     0.24800
C1204       C  0.52965232  0.10044438  0.61245525    -0.19400
C1205       C  0.52845824  0.08080905  0.59409913    -0.07900
C1206       C  0.52517459  0.08659077  0.56801982    -0.03900
C1207       C  0.52330736  0.11254717  0.56097551    -0.09300
C1208       C  0.52448594  0.13202203  0.57926480    -0.16900
H1209       H  0.47567697  0.19428592  0.70430745     0.11200
H1210       H  0.48332387  0.16753350  0.66701017     0.10500
H1211       H  0.55761477  0.20143168  0.65777723     0.10500
H1212       H  0.55002833  0.22854028  0.69567561     0.11000
H1213       H  0.53199440  0.09551297  0.63238910     0.11100
H1214       H  0.53011577  0.06116451  0.60032524     0.11000
H1215       H  0.52078923  0.11794982  0.54119868     0.11200
H1216       H  0.52274741  0.15171478  0.57317779     0.10000
C1217       C  0.52927096  0.91317068  0.55953389    -0.03800
C1218       C  0.52647238  0.88757999  0.55165013    -0.09600
C1219       C  0.52769318  0.86760384  0.56938130    -0.17200
C1220       C  0.53185365  0.87278677  0.59524444     0.24900
C1221       C  0.53472237  0.89813750  0.60327735    -0.18900
C1222       C  0.53343591  0.91816644  0.58559917    -0.07800
C1223       C  0.53207886  0.85219918  0.61363212    -0.14300
C1224       C  0.53042541  0.83531442  0.62930442    -0.14000
C1225       C  0.52529877  0.81645266  0.64879244     0.24800
C1226       C  0.50064350  0.81464779  0.65870330    -0.19400
C1227       C  0.49552602  0.79833278  0.67910643    -0.07900
C1228       C  0.51499243  0.78345549  0.69010554    -0.03900
C1229       C  0.53948987  0.78425718  0.67925593    -0.09300
C1230       C  0.54464464  0.80080995  0.65873077    -0.16900
H1231       H  0.52312210  0.88295091  0.53179857     0.11200
H1232       H  0.52520999  0.84810762  0.56292727     0.10500
H1233       H  0.53777829  0.90245788  0.62325484     0.10500
H1234       H  0.53572142  0.93756154  0.59237412     0.11000
H1235       H  0.48548166  0.82651568  0.65119793     0.11100
H1236       H  0.47644407  0.79813835  0.68701507     0.11000
H1237       H  0.55489562  0.77330158  0.68754991     0.11200
H1238       H  0.56383752  0.80201715  0.65120483     0.10000
C1239       C  0.43707197  0.01064009  0.39577115    -0.03800
C1240       C  0.41221745  0.00285864  0.40220702    -0.09600
C1241       C  0.39194760  0.00757592  0.38573669    -0.17200
C1242       C  0.39611793  0.02022964  0.36265251     0.24900
C1243       C  0.42084244  0.02757052  0.35567475    -0.18900
C1244       C  0.44129927  0.02273984  0.37215864    -0.07800
C1245       C  0.37469421  0.02525683  0.34641181    -0.14300
C1246       C  0.35510816  0.02690615  0.33459242    -0.14000
C1247       C  0.33111670  0.02499239  0.32159067     0.24800
C1248       C  0.33030028  0.02681593  0.29504013    -0.19400
C1249       C  0.30795370  0.02062742  0.28201286    -0.07900
C1250       C  0.28614454  0.01235503  0.29539597    -0.03900
C1251       C  0.28666906  0.01208836  0.32219878    -0.09300
C1252       C  0.30911947  0.01829364  0.33521283    -0.16900
H1253       H  0.40835773  0.99331973  0.42013749     0.11200
H1254       H  0.37291462  0.00158319  0.39115661     0.10500
H1255       H  0.42424486  0.03723900  0.33771611     0.10500
H1256       H  0.46021644  0.02907361  0.36678015     0.11000
H1257       H  0.34723422  0.03191141  0.28433314     0.11100
H1258       H  0.30813068  0.02130937  0.26136592     0.11000
H1259       H  0.27023118  0.00582555  0.33303340     0.11200
H1260       H  0.30965556  0.01672537  0.35581808     0.10000
C1261       C  0.60707029  0.02074386  0.56309052    -0.03800
C1262       C  0.59872716  0.02380029  0.58842822    -0.09600
C1263       C  0.61414193  0.03590937  0.60634696    -0.17200
C1264       C  0.63813208  0.04512568  0.59932999     0.24900
C1265       C  0.64700640  0.04167435  0.57439974    -0.18900
C1266       C  0.63152225  0.02960505  0.55630199    -0.07800
C1267       C  0.65398405  0.05650296  0.61848407    -0.14300
C1268       C  0.66615850  0.06217508  0.63706260    -0.14000
C1269       C  0.67955788  0.06211766  0.66085924     0.24800
C1270       C  0.70587745  0.05812677  0.66092251    -0.19400
C1271       C  0.71788320  0.04948545  0.68302297    -0.07900
C1272       C  0.70350708  0.04431424  0.70511156    -0.03900
C1273       C  0.67765467  0.05138224  0.70572662    -0.09300
C1274       C  0.66569908  0.06008727  0.68358235    -0.16900
H1275       H  0.57998529  0.01743501  0.59434929     0.11200
H1276       H  0.60728480  0.03816678  0.62571700     0.10500
H1277       H  0.66575608  0.04843855  0.56892942     0.10500
H1278       H  0.63842282  0.02783643  0.53691573     0.11000
H1279       H  0.71672739  0.05952554  0.64338698     0.11100
H1280       H  0.73792796  0.04466767  0.68204103     0.11000
H1281       H  0.66612021  0.04797268  0.72252352     0.11200
H1282       H  0.64525179  0.06302308  0.68365722     0.10000
C1283       C  0.44015896  0.99056065  0.56511050    -0.03800
C1284       C  0.44737065  0.98988804  0.59099763    -0.09600
C1285       C  0.42951666  0.98401072  0.60987441    -0.17200
C1286       C  0.40426937  0.97872423  0.60316026     0.24900
C1287       C  0.39679061  0.97965427  0.57756490    -0.18900
C1288       C  0.41458855  0.98556403  0.55863672    -0.07800
C1289       C  0.38587580  0.97275668  0.62252369    -0.14300
C1290       C  0.36964341  0.96863121  0.63820092    -0.14000
C1291       C  0.34903701  0.96536429  0.65588095     0.24800
C1292       C  0.32479280  0.95907106  0.64675057    -0.19400
C1293       C  0.30404045  0.95861269  0.66336141    -0.07900
C1294       C  0.30731933  0.96449821  0.68933610    -0.03900
C1295       C  0.33196986  0.96961074  0.69859177    -0.09300
C1296       C  0.35271173  0.97018798  0.68187531    -0.16900
H1297       H  0.46685898  0.99366348  0.59669704     0.11200
H1298       H  0.43542766  0.98348378  0.62967607     0.10500
H1299       H  0.37721970  0.97569684  0.57222581     0.10500
H1300       H  0.40838124  0.98582939  0.53893704     0.11000
H1301       H  0.32178445  0.95532144  0.62664505     0.11100
H1302       H  0.28530951  0.95444427  0.65570595     0.11000
H1303       H  0.33505540  0.97433679  0.71846385     0.11200
H1304       H  0.37143318  0.97517524  0.68907025     0.10000
C1305       C  0.69945453  0.98453506  0.21153599    -0.03800
C1306       C  0.68766569  0.00362370  0.19661386    -0.09600
C1307       C  0.66878273  0.99762353  0.17887805    -0.17200
C1308       C  0.66120987  0.97234735  0.17520503     0.24900
C1309       C  0.67371966  0.95284375  0.18883220    -0.18900
C1310       C  0.69279692  0.95889311  0.20691914    -0.07800
C1311       C  0.64002965  0.96734396  0.15801366    -0.14300
C1312       C  0.62213305  0.96656872  0.14331753    -0.14000
C1313       C  0.60147158  0.96770864  0.12484745     0.24800
C1314       C  0.57617007  0.97181991  0.13258872    -0.19400
C1315       C  0.55644554  0.97335668  0.11444998    -0.07900
C1316       C  0.56172795  0.97095539  0.08820602    -0.03900
C1317       C  0.58727329  0.96709575  0.08070055    -0.09300
C1318       C  0.60684699  0.96547469  0.09880036    -0.16900
H1319       H  0.69237846  0.02358761  0.19928074     0.11200
H1320       H  0.65956963  0.01292456  0.16845344     0.10500
H1321       H  0.66821770  0.93310083  0.18606315     0.10500
H1322       H  0.70135499  0.94375319  0.21806126     0.11000
H1323       H  0.57167360  0.97388210  0.15264725     0.11100
H1324       H  0.53712274  0.97653699  0.12096465     0.11000
H1325       H  0.59223587  0.96517444  0.06074519     0.11200
H1326       H  0.62626436  0.96252103  0.09241659     0.10000
C1327       C  0.71338236  0.04896327  0.27627271    -0.03800
C1328       C  0.68908384  0.05830668  0.26977951    -0.09600
C1329       C  0.67519551  0.07247803  0.28742538    -0.17200
C1330       C  0.68566186  0.07770877  0.31137862     0.24900
C1331       C  0.71131958  0.07226965  0.31617174    -0.18900
C1332       C  0.72524505  0.05797152  0.29857788    -0.07800
C1333       C  0.66858034  0.07936423  0.33253069    -0.14300
C1334       C  0.65396398  0.07229511  0.34868478    -0.14000
C1335       C  0.63770075  0.05777644  0.36516545     0.24800
C1336       C  0.64227652  0.05735805  0.39137389    -0.19400
C1337       C  0.62710273  0.04231011  0.40719330    -0.07900
C1338       C  0.60704053  0.02758058  0.39696944    -0.03900
C1339       C  0.60303628  0.02753373  0.37049580    -0.09300
C1340       C  0.61847693  0.04242619  0.35465217    -0.16900
H1341       H  0.67952252  0.05210137  0.25254498     0.11200
H1342       H  0.65527022  0.07641654  0.28361844     0.10500
H1343       H  0.71955301  0.07616333  0.33472915     0.10500
H1344       H  0.74416102  0.05156552  0.30379957     0.11000
H1345       H  0.65740438  0.06881228  0.39960508     0.11100
H1346       H  0.63039589  0.04314475  0.42757931     0.11000
H1347       H  0.58768084  0.01648091  0.36216349     0.11200
H1348       H  0.61525912  0.04219929  0.33423448     0.10000
C1349       C  0.30392412  0.79288683  0.47913231    -0.03800
C1350       C  0.30370521  0.81983132  0.47919394    -0.09600
C1351       C  0.32604125  0.83381619  0.47558909    -0.17200
C1352       C  0.34921787  0.82134189  0.47179092     0.24900
C1353       C  0.34975504  0.79452495  0.47097503    -0.18900
C1354       C  0.32718123  0.78033583  0.47453277    -0.07800
C1355       C  0.37213954  0.83661562  0.46988057    -0.14300
C1356       C  0.38919106  0.85220985  0.46973457    -0.14000
C1357       C  0.40750072  0.87286602  0.47088998     0.24800
C1358       C  0.39963514  0.89799039  0.46613217    -0.19400
C1359       C  0.41694778  0.91828863  0.46818684    -0.07900
C1360       C  0.44251621  0.91376210  0.47489783    -0.03900
C1361       C  0.45024832  0.88841633  0.47965545    -0.09300
C1362       C  0.43286006  0.86817349  0.47772956    -0.16900
H1363       H  0.28622221  0.83030661  0.48243506     0.11200
H1364       H  0.32527357  0.85448930  0.47624031     0.10500
H1365       H  0.36762115  0.78460761  0.46807354     0.10500
H1366       H  0.32804940  0.75968639  0.47446390     0.11000
H1367       H  0.38003587  0.90192188  0.46093975     0.11100
H1368       H  0.41036882  0.93747806  0.46425077     0.11000
H1369       H  0.46973983  0.88420371  0.48499837     0.11200
H1370       H  0.43918349  0.84888945  0.48168121     0.10000
C1371       C  0.61080688  0.91820662  0.47038690    -0.03800
C1372       C  0.63709385  0.92279232  0.47370845    -0.09600
C1373       C  0.65471716  0.90247565  0.47310610    -0.17200
C1374       C  0.64640716  0.87725845  0.46900226     0.24900
C1375       C  0.62044691  0.87275398  0.46483309    -0.18900
C1376       C  0.60290428  0.89287911  0.46546888    -0.07800
C1377       C  0.66394518  0.85570293  0.46989252    -0.14300
C1378       C  0.67708757  0.83662064  0.47127349    -0.14000
C1379       C  0.69220988  0.81346597  0.47418505     0.24800
C1380       C  0.71384502  0.80920645  0.45898951    -0.19400
C1381       C  0.73006786  0.78840193  0.46392246    -0.07900
C1382       C  0.72496373  0.77161472  0.48421331    -0.03900
C1383       C  0.70244231  0.77512518  0.49838879    -0.09300
C1384       C  0.68615642  0.79575327  0.49333604    -0.16900
H1385       H  0.64397097  0.94194686  0.47735587     0.11200
H1386       H  0.67474883  0.90640470  0.47627286     0.10500
H1387       H  0.61362413  0.85350105  0.46150198     0.10500
H1388       H  0.58296586  0.88841003  0.46246967     0.11000
H1389       H  0.71888969  0.82267679  0.44413536     0.11100
H1390       H  0.74771378  0.78673480  0.45333409     0.11000
H1391       H  0.69843638  0.76295051  0.51462642     0.11200
H1392       H  0.66955146  0.79862241  0.50528067     0.10000
C1393       C  0.60548664  0.09282588  0.47856975    -0.03800
C1394       C  0.59794684  0.11799267  0.47269609    -0.09600
C1395       C  0.61586690  0.13791013  0.47186348    -0.17200
C1396       C  0.64165670  0.13316111  0.47698383     0.24900
C1397       C  0.64936176  0.10814737  0.48263536    -0.18900
C1398       C  0.63149632  0.08815770  0.48332624    -0.07800
C1399       C  0.65998774  0.15403198  0.47732504    -0.14300
C1400       C  0.67526757  0.17142619  0.47888393    -0.14000
C1401       C  0.69387978  0.19166017  0.48289394     0.24800
C1402       C  0.69162505  0.20784354  0.50406008    -0.19400
C1403       C  0.71144006  0.22469186  0.51045149    -0.07900
C1404       C  0.73377177  0.22590138  0.49563696    -0.03900
C1405       C  0.73521427  0.21087516  0.47346671    -0.09300
C1406       C  0.71543474  0.19384489  0.46716016    -0.16900
H1407       H  0.57816944  0.12232733  0.46866985     0.11200
H1408       H  0.60953733  0.15708965  0.46744523     0.10500
H1409       H  0.66918984  0.10409894  0.48673363     0.10500
H1410       H  0.63801909  0.06909679  0.48792765     0.11000
H1411       H  0.67522364  0.20635177  0.51653741     0.11100
H1412       H  0.71023685  0.23526961  0.52816326     0.11000
H1413       H  0.75261730  0.21057848  0.46235062     0.11200
H1414       H  0.71764169  0.18136419  0.45084252     0.10000
C1415       C  0.28848615  0.20108344  0.48193951    -0.03800
C1416       C  0.30842103  0.21003638  0.46632661    -0.09600
C1417       C  0.33169581  0.19660919  0.46504634    -0.17200
C1418       C  0.33534978  0.17430243  0.47959294     0.24900
C1419       C  0.31579413  0.16597476  0.49572215    -0.18900
C1420       C  0.29264066  0.17908924  0.49678905    -0.07800
C1421       C  0.35844515  0.15904694  0.47774301    -0.14300
C1422       C  0.37616744  0.14410976  0.47769819    -0.14000
C1423       C  0.39610111  0.12479904  0.47868140     0.24800
C1424       C  0.42188792  0.13183209  0.47904483    -0.19400
C1425       C  0.44103110  0.11312964  0.48017175    -0.07900
C1426       C  0.43483631  0.08688438  0.48094487    -0.03900
C1427       C  0.40883080  0.08002283  0.48073935    -0.09300
C1428       C  0.38971554  0.09878009  0.47963686    -0.16900
H1429       H  0.30561374  0.22666064  0.45436244     0.11200
H1430       H  0.34657297  0.20331290  0.45236591     0.10500
H1431       H  0.31821058  0.14887695  0.50711214     0.10500
H1432       H  0.27765910  0.17168144  0.50895444     0.11000
H1433       H  0.42724571  0.15180908  0.47842176     0.11100
H1434       H  0.46074251  0.11929689  0.48027577     0.11000
H1435       H  0.40320268  0.06013301  0.48132055     0.11200
H1436       H  0.36988942  0.09294544  0.47949001     0.10000
C1437       C  0.76908469  0.98446820  0.72910262    -0.03800
C1438       C  0.79133579  0.99947808  0.72950116    -0.09600
C1439       C  0.81193416  0.99382744  0.71342741    -0.17200
C1440       C  0.81059068  0.97314551  0.69651361     0.24900
C1441       C  0.78916062  0.95705016  0.69729396    -0.18900
C1442       C  0.76854097  0.96267231  0.71347731    -0.07800
C1443       C  0.82980638  0.97018719  0.67671096    -0.14300
C1444       C  0.84509108  0.96928335  0.65930451    -0.14000
C1445       C  0.86289020  0.96947031  0.63799051     0.24800
C1446       C  0.85412379  0.97348281  0.61302086    -0.19400
C1447       C  0.87133285  0.97460495  0.59250908    -0.07900
C1448       C  0.89776408  0.97189092  0.59654650    -0.03900
C1449       C  0.90636285  0.96757022  0.62169159    -0.09300
C1450       C  0.88910422  0.96634870  0.64215098    -0.16900
H1451       H  0.79187472  0.01689053  0.74064045     0.11200
H1452       H  0.82821506  0.00657875  0.71304128     0.10500
H1453       H  0.78768130  0.94108007  0.68425469     0.10500
H1454       H  0.75127182  0.95139471  0.71201288     0.11000
H1455       H  0.83394593  0.97597525  0.60939792     0.11100
H1456       H  0.86392911  0.97794227  0.57351693     0.11000
H1457       H  0.92648447  0.96516426  0.62561741     0.11200
H1458       H  0.89626932  0.96319054  0.66127733     0.10000
C1459       C  0.06877590  0.98570416  0.58312648    -0.03800
C1460       C  0.06409908  0.98621917  0.60960972    -0.09600
C1461       C  0.08424478  0.98822123  0.62709458    -0.17200
C1462       C  0.10949361  0.98976833  0.61855078     0.24900
C1463       C  0.11440334  0.98920706  0.59224970    -0.18900
C1464       C  0.09427024  0.98720723  0.57469434    -0.07800
C1465       C  0.13033096  0.99128213  0.63674433    -0.14300
C1466       C  0.14831954  0.99138670  0.65130939    -0.14000
C1467       C  0.17135177  0.98932697  0.66653642     0.24800
C1468       C  0.17165618  0.99449493  0.69288401    -0.19400
C1469       C  0.19410843  0.99085866  0.70730207    -0.07900
C1470       C  0.21651558  0.98202010  0.69547557    -0.03900
C1471       C  0.21582893  0.97732221  0.66891194    -0.09300
C1472       C  0.19363971  0.98094524  0.65473349    -0.16900
H1473       H  0.04482467  0.98505216  0.61690654     0.11200
H1474       H  0.08009674  0.98848047  0.64733576     0.10500
H1475       H  0.13382551  0.99023444  0.58528478     0.10500
H1476       H  0.09871091  0.98680712  0.55452578     0.11000
H1477       H  0.15451402  0.00105961  0.70231668     0.11100
H1478       H  0.19391229  0.99487093  0.72755465     0.11000
H1479       H  0.23249067  0.97054648  0.65880503     0.11200
H1480       H  0.19382687  0.97684461  0.63446677     0.10000
C1481       C  0.05612248  0.97447141  0.41277286    -0.03800
C1482       C  0.08196250  0.96912731  0.41782490    -0.09600
C1483       C  0.09984334  0.96777395  0.39797073    -0.17200
C1484       C  0.09243505  0.97184303  0.37259680     0.24900
C1485       C  0.06672566  0.97704329  0.36730247    -0.18900
C1486       C  0.04872135  0.97825274  0.38716795    -0.07800
C1487       C  0.11153490  0.97138929  0.35241639    -0.14300
C1488       C  0.12919046  0.97162864  0.33736786    -0.14000
C1489       C  0.15241391  0.97295341  0.32216041     0.24800
C1490       C  0.17598807  0.97416963  0.33460252    -0.19400
C1491       C  0.19857601  0.97710898  0.32067549    -0.07900
C1492       C  0.19827809  0.97874537  0.29381435    -0.03900
C1493       C  0.17460810  0.97670874  0.28125995    -0.09300
C1494       C  0.15183322  0.97397314  0.29534831    -0.16900
H1495       H  0.08842224  0.96589471  0.43717862     0.11200
H1496       H  0.11958781  0.96373002  0.40247861     0.10500
H1497       H  0.06059740  0.98033446  0.34784385     0.10500
H1498       H  0.02905775  0.98243938  0.38248997     0.11000
H1499       H  0.17690810  0.97333088  0.35523951     0.11100
H1500       H  0.21637088  0.97839754  0.33108026     0.11000
H1501       H  0.17362600  0.97805571  0.26067363     0.11200
H1502       H  0.13378283  0.97309239  0.28534826     0.10000
C1503       C  0.76550410  0.97289668  0.28113106    -0.03800
C1504       C  0.79077431  0.98189268  0.28073020    -0.09600
C1505       C  0.80745597  0.97691298  0.30105585    -0.17200
C1506       C  0.79918387  0.96300491  0.32237536     0.24900
C1507       C  0.77456042  0.95236018  0.32209233    -0.18900
C1508       C  0.75781905  0.95732864  0.30164608    -0.07800
C1509       C  0.81515504  0.96201916  0.34517619    -0.14300
C1510       C  0.82937082  0.96334547  0.36351986    -0.14000
C1511       C  0.84814832  0.96612463  0.38391596     0.24800
C1512       C  0.87374746  0.97035723  0.37765888    -0.19400
C1513       C  0.89229827  0.97257944  0.39677994    -0.07900
C1514       C  0.88582362  0.97068675  0.42286565    -0.03900
C1515       C  0.85992101  0.96693952  0.42912304    -0.09300
C1516       C  0.84127763  0.96467393  0.40981762    -0.16900
H1517       H  0.79694624  0.99466287  0.26567472     0.11200
H1518       H  0.82633172  0.98534184  0.30084772     0.10500
H1519       H  0.76774172  0.94157292  0.33836081     0.10500
H1520       H  0.73821555  0.95092851  0.30296271     0.11000
H1521       H  0.87948262  0.97176800  0.35785082     0.11100
H1522       H  0.91187307  0.97565150  0.39097577     0.11000
H1523       H  0.85409399  0.96548551  0.44888316     0.11200
H1524       H  0.82154973  0.96160675  0.41511367     0.10000
C1525       C  0.06800999  0.89925633  0.50652942    -0.03800
C1526       C  0.06531256  0.87419633  0.51575519    -0.09600
C1527       C  0.08691703  0.85944379  0.52085046    -0.17200
C1528       C  0.11127054  0.86964503  0.51678671     0.24900
C1529       C  0.11408638  0.89420202  0.50686037    -0.18900
C1530       C  0.09264274  0.90891964  0.50174297    -0.07800
C1531       C  0.13353265  0.85492185  0.52234734    -0.14300
C1532       C  0.15261748  0.84260024  0.52505256    -0.14000
C1533       C  0.17486728  0.82687427  0.52452021     0.24800
C1534       C  0.19916350  0.83792577  0.52382864    -0.19400
C1535       C  0.22041687  0.82280004  0.51848015    -0.07900
C1536       C  0.21742172  0.79653360  0.51365788    -0.03900
C1537       C  0.19309232  0.78544240  0.51609443    -0.09300
C1538       C  0.17195586  0.80057278  0.52137998    -0.16900
H1539       H  0.04663902  0.86630395  0.51974764     0.11200
H1540       H  0.08465538  0.84027367  0.52829779     0.10500
H1541       H  0.13287714  0.90210316  0.50336386     0.10500
H1542       H  0.09544185  0.92809447  0.49449940     0.11000
H1543       H  0.20152738  0.85834518  0.52619384     0.11100
H1544       H  0.23893284  0.83185500  0.51697178     0.11000
H1545       H  0.19010080  0.76527906  0.51263676     0.11200
H1546       H  0.15317232  0.79192709  0.52177511     0.10000
C1547       C  0.78878259  0.77045717  0.55050392    -0.03800
C1548       C  0.81250150  0.76202846  0.55981061    -0.09600
C1549       C  0.82843809  0.77880827  0.57302955    -0.17200
C1550       C  0.82064658  0.80395769  0.57734841     0.24900
C1551       C  0.79602783  0.81158986  0.57062702    -0.18900
C1552       C  0.78007599  0.79489201  0.55741503    -0.07800
C1553       C  0.83947386  0.82325662  0.58165480    -0.14300
C1554       C  0.85465078  0.83988989  0.57736370    -0.14000
C1555       C  0.87067032  0.85816828  0.56486573     0.24800
C1556       C  0.86061105  0.88175698  0.55750368    -0.19400
C1557       C  0.87496939  0.89826191  0.54228394    -0.07900
C1558       C  0.89958373  0.89127615  0.53414129    -0.03900
C1559       C  0.90934692  0.86734206  0.54144861    -0.09300
C1560       C  0.89494660  0.85091292  0.55667485    -0.16900
H1561       H  0.81971369  0.74328483  0.55497143     0.11200
H1562       H  0.84764026  0.77286256  0.57778551     0.10500
H1563       H  0.79001671  0.83117282  0.57346918     0.10500
H1564       H  0.76191342  0.80199942  0.55065617     0.11000
H1565       H  0.84154552  0.88724479  0.56324827     0.11100
H1566       H  0.86693976  0.91663641  0.53729556     0.11000
H1567       H  0.92829871  0.86144077  0.53580500     0.11200
H1568       H  0.90261514  0.83240124  0.56177344     0.10000
C1569       C  0.80085887  0.20209210  0.55334112    -0.03800
C1570       C  0.78559632  0.18148769  0.56150501    -0.09600
C1571       C  0.79683622  0.15857817  0.56911603    -0.17200
C1572       C  0.82335987  0.15621937  0.56893753     0.24900
C1573       C  0.83864437  0.17749392  0.56363470    -0.18900
C1574       C  0.82746120  0.20042330  0.55603053    -0.07800
C1575       C  0.83464771  0.13137686  0.56795177    -0.14300
C1576       C  0.84529869  0.11236629  0.56089072    -0.14000
C1577       C  0.85953097  0.09332250  0.54746398     0.24800
C1578       C  0.87701656  0.10115971  0.52886536    -0.19400
C1579       C  0.89198615  0.08320753  0.51625172    -0.07900
C1580       C  0.88943497  0.05716325  0.52198590    -0.03900
C1581       C  0.87086284  0.04930069  0.53975753    -0.09300
C1582       C  0.85604919  0.06735679  0.55255069    -0.16900
H1583       H  0.76502302  0.18230125  0.55995010     0.11200
H1584       H  0.78485725  0.14215101  0.57299664     0.10500
H1585       H  0.85922465  0.17573214  0.56317684     0.10500
H1586       H  0.83974021  0.21592282  0.54997281     0.11000
H1587       H  0.87955389  0.12125386  0.52459601     0.11100
H1588       H  0.90616685  0.08973402  0.50270512     0.11000
H1589       H  0.86880396  0.02935024  0.54484806     0.11200
H1590       H  0.84240541  0.06113346  0.56677894     0.10000
C1591       C  0.19644018  0.18589371  0.47964508    -0.03800
C1592       C  0.17169822  0.19416347  0.48580130    -0.09600
C1593       C  0.15110542  0.17734911  0.48426935    -0.17200
C1594       C  0.15493863  0.15215499  0.47642878     0.24900
C1595       C  0.17946482  0.14369305  0.47024610    -0.18900
C1596       C  0.20015980  0.16045142  0.47193881    -0.07800
C1597       C  0.13381576  0.13476260  0.47602547    -0.14300
C1598       C  0.11623047  0.12009702  0.47758006    -0.14000
C1599       C  0.09629826  0.10175518  0.48147113     0.24800
C1600       C  0.10234929  0.07583549  0.48170126    -0.19400
C1601       C  0.08349929  0.05778630  0.48669646    -0.07900
C1602       C  0.05817649  0.06537377  0.49152037    -0.03900
C1603       C  0.05221271  0.09154985  0.49117958    -0.09300
C1604       C  0.07124721  0.10965829  0.48622284    -0.16900
H1605       H  0.16826407  0.21359360  0.49194228     0.11200
H1606       H  0.13220756  0.18395805  0.48933757     0.10500
H1607       H  0.18260609  0.12414263  0.46428719     0.10500
H1608       H  0.21897029  0.15360458  0.46691713     0.11000
H1609       H  0.12171447  0.06955810  0.47819760     0.11100
H1610       H  0.08886107  0.03782940  0.48666384     0.11000
H1611       H  0.03294427  0.09801515  0.49474565     0.11200
H1612       H  0.06648227  0.12977769  0.48624539     0.10000
C1613       C  0.97327149  0.56435690  0.08618133    -0.03800
C1614       C  0.97509036  0.58991312  0.07782292    -0.09600
C1615       C  0.97281938  0.61023959  0.09498207    -0.17200
C1616       C  0.96863368  0.60564097  0.12093412     0.24900
C1617       C  0.96712419  0.58029912  0.12962350    -0.18900
C1618       C  0.96941610  0.55980631  0.11240672    -0.07800
C1619       C  0.96642438  0.62707777  0.13839705    -0.14300
C1620       C  0.96613055  0.64571558  0.15216955    -0.14000
C1621       C  0.96915265  0.66790917  0.16853972     0.24800
C1622       C  0.95009850  0.67539588  0.18586858    -0.19400
C1623       C  0.95510539  0.69448235  0.20418396    -0.07900
C1624       C  0.97926482  0.70613714  0.20534453    -0.03900
C1625       C  0.99746707  0.69975782  0.18669078    -0.09300
C1626       C  0.99246552  0.68090177  0.16850898    -0.16900
H1627       H  0.97821704  0.59433359  0.05788625     0.11200
H1628       H  0.97427915  0.62963817  0.08792831     0.10500
H1629       H  0.96408662  0.57636619  0.14968291     0.10500
H1630       H  0.96791101  0.54047032  0.11958022     0.11000
H1631       H  0.93190815  0.66558017  0.18612150     0.11100
H1632       H  0.94092906  0.69858203  0.21861905     0.11000
H1633       H  0.01634328  0.70817399  0.18731313     0.11200
H1634       H  0.00737930  0.67549185  0.15527963     0.10000
C1635       C  0.97240389  0.76786061  0.27871977    -0.03800
C1636       C  0.97666247  0.79383190  0.27335891    -0.09600
C1637       C  0.97264996  0.81249725  0.29226941    -0.17200
C1638       C  0.96446431  0.80540930  0.31682111     0.24900
C1639       C  0.95875486  0.77971608  0.32165790    -0.18900
C1640       C  0.96280799  0.76113314  0.30285397    -0.07800
C1641       C  0.96429719  0.82373319  0.33772956    -0.14300
C1642       C  0.96547702  0.83816637  0.35587184    -0.14000
C1643       C  0.96759641  0.85575424  0.37730799     0.24800
C1644       C  0.96426140  0.88193191  0.37331669    -0.19400
C1645       C  0.96646898  0.89915801  0.39360841    -0.07900
C1646       C  0.97203605  0.89072313  0.41861061    -0.03900
C1647       C  0.97541768  0.86432491  0.42255561    -0.09300
C1648       C  0.97325799  0.84702013  0.40205227    -0.16900
H1649       H  0.98493573  0.79944874  0.25527217     0.11200
H1650       H  0.97730173  0.83223582  0.28816471     0.10500
H1651       H  0.95255392  0.77380341  0.34047088     0.10500
H1652       H  0.96019849  0.74120392  0.30776683     0.11000
H1653       H  0.95994026  0.88911832  0.35441945     0.11100
H1654       H  0.96363108  0.91923262  0.38958536     0.11000
H1655       H  0.97977810  0.85706313  0.44139682     0.11200
H1656       H  0.97601065  0.82682133  0.40551198     0.10000
C1657       C  0.98059951  0.38914170  0.91909294    -0.03800
C1658       C  0.98801843  0.39307940  0.89358539    -0.09600
C1659       C  0.98726660  0.37289966  0.87599244    -0.17200
C1660       C  0.97892482  0.34857032  0.88355868     0.24900
C1661       C  0.97130118  0.34458836  0.90880625    -0.18900
C1662       C  0.97217511  0.36462759  0.92641872    -0.07800
C1663       C  0.97743807  0.32794010  0.86526467    -0.14300
C1664       C  0.97545653  0.31194413  0.84872520    -0.14000
C1665       C  0.97241660  0.29622009  0.82625449     0.24800
C1666       C  0.98293736  0.27160042  0.82455743    -0.19400
C1667       C  0.98276460  0.25843191  0.80113313    -0.07900
C1668       C  0.97227519  0.26998420  0.77930515    -0.03900
C1669       C  0.96032528  0.29386675  0.78176218    -0.09300
C1670       C  0.96039552  0.30682097  0.80497410    -0.16900
H1671       H  0.99456869  0.41165939  0.88728037     0.11200
H1672       H  0.99309064  0.37630474  0.85645449     0.10500
H1673       H  0.96457438  0.32598704  0.91489082     0.10500
H1674       H  0.96601224  0.36092379  0.94578726     0.11000
H1675       H  0.99230593  0.26314313  0.84091756     0.11100
H1676       H  0.99244403  0.24024571  0.79965051     0.11000
H1677       H  0.95221618  0.30325063  0.76522426     0.11200
H1678       H  0.95215113  0.32575539  0.80596616     0.10000
C1679       C  0.97669929  0.06436266  0.58932616    -0.03800
C1680       C  0.97626272  0.05702750  0.61523855    -0.09600
C1681       C  0.97517459  0.07531815  0.63467686    -0.17200
C1682       C  0.97450388  0.10134454  0.62871810     0.24900
C1683       C  0.97500299  0.10892253  0.60303894    -0.18900
C1684       C  0.97604437  0.09061602  0.58349066    -0.07800
C1685       C  0.97387497  0.12021448  0.64893722    -0.14300
C1686       C  0.97447989  0.13654392  0.66530206    -0.14000
C1687       C  0.97740231  0.15758063  0.68302124     0.24800
C1688       C  0.00055190  0.17085426  0.68361346    -0.19400
C1689       C  0.00294036  0.19321415  0.69792331    -0.07900
C1690       C  0.98231922  0.20261996  0.71219826    -0.03900
C1691       C  0.95948678  0.18852863  0.71280409    -0.09300
C1692       C  0.95700232  0.16613811  0.69814724    -0.16900
H1693       H  0.97666903  0.03706575  0.62060285     0.11200
H1694       H  0.97490189  0.06911697  0.65439755     0.10500
H1695       H  0.97462104  0.12900962  0.59811009     0.10500
H1696       H  0.97634784  0.09703111  0.56385389     0.11000
H1697       H  0.01647902  0.16454591  0.67207712     0.11100
H1698       H  0.02063394  0.20387466  0.69693963     0.11000
H1699       H  0.94315791  0.19568116  0.72320897     0.11200
H1700       H  0.93891726  0.15612721  0.69781564     0.10000
C1701       C  0.96528258  0.68696521  0.78044327    -0.03800
C1702       C  0.95116393  0.66427884  0.78389263    -0.09600
C1703       C  0.95516702  0.64870803  0.80511312    -0.17200
C1704       C  0.97334844  0.65536993  0.82341375     0.24900
C1705       C  0.98732193  0.67807513  0.82049225    -0.18900
C1706       C  0.98326889  0.69385225  0.79915181    -0.07800
C1707       C  0.97762936  0.63836673  0.84471272    -0.14300
C1708       C  0.97971663  0.62243430  0.86129222    -0.14000
C1709       C  0.98096019  0.60219126  0.88001021     0.24800
C1710       C  0.97599712  0.57689901  0.87278666    -0.19400
C1711       C  0.97654401  0.55723614  0.89092705    -0.07900
C1712       C  0.98188489  0.56261537  0.91667361    -0.03900
C1713       C  0.98707986  0.58810756  0.92368487    -0.09300
C1714       C  0.98663194  0.60769123  0.90550200    -0.16900
H1715       H  0.93705632  0.65832662  0.77002204     0.11200
H1716       H  0.94420165  0.63125917  0.80709957     0.10500
H1717       H  0.00150964  0.68343294  0.83452697     0.10500
H1718       H  0.99456044  0.71104209  0.79701050     0.11000
H1719       H  0.97150471  0.57238882  0.85312391     0.11100
H1720       H  0.97236522  0.53791798  0.88486302     0.11000
H1721       H  0.99142053  0.59299067  0.94328392     0.11200
H1722       H  0.99051951  0.62714242  0.91138122     0.10000
C1723       C  0.97836575  0.76397685  0.72508860    -0.03800
C1724       C  0.99956550  0.76484240  0.70869056    -0.09600
C1725       C  0.00303525  0.78543489  0.69196059    -0.17200
C1726       C  0.98543145  0.80552443  0.69153212     0.24900
C1727       C  0.96560122  0.80585844  0.70947415    -0.18900
C1728       C  0.96206778  0.78518488  0.72613505    -0.07800
C1729       C  0.98619060  0.82431537  0.67121960    -0.14300
C1730       C  0.98595135  0.83947665  0.65373363    -0.14000
C1731       C  0.98544210  0.85796344  0.63312227     0.24800
C1732       C  0.98122215  0.85021104  0.60786064    -0.19400
C1733       C  0.98088270  0.86823467  0.58802273    -0.07900
C1734       C  0.98467349  0.89439056  0.59309836    -0.03900
C1735       C  0.98878125  0.90195453  0.61859874    -0.09300
C1736       C  0.98917576  0.88390950  0.63835451    -0.16900
H1737       H  0.01183420  0.74831881  0.70684432     0.11200
H1738       H  0.01842684  0.78481106  0.67819619     0.10500
H1739       H  0.95180512  0.82122480  0.70937681     0.10500
H1740       H  0.94509160  0.78456136  0.73788650     0.11000
H1741       H  0.97817441  0.83022778  0.60346966     0.11100
H1742       H  0.97743283  0.86168742  0.56873783     0.11000
H1743       H  0.99172283  0.92185797  0.62335504     0.11200
H1744       H  0.99239512  0.89022941  0.65776946     0.10000
C1745       C  0.24695201  0.71539261  0.48140359    -0.03800
C1746       C  0.23945470  0.69987107  0.50197934    -0.09600
C1747       C  0.22207224  0.67987231  0.49845027    -0.17200
C1748       C  0.21179726  0.67500509  0.47428087     0.24900
C1749       C  0.22104441  0.68881881  0.45321183    -0.18900
C1750       C  0.23856659  0.70891029  0.45675797    -0.07800
C1751       C  0.19011841  0.65777915  0.47197730    -0.14300
C1752       C  0.17157361  0.64382137  0.47218576    -0.14000
C1753       C  0.15029251  0.62599415  0.47371745     0.24800
C1754       C  0.15484157  0.59985443  0.47085673    -0.19400
C1755       C  0.13486502  0.58220048  0.47279197    -0.07900
C1756       C  0.10964346  0.59018773  0.47754926    -0.03900
C1757       C  0.10510134  0.61658105  0.48044367    -0.09300
C1758       C  0.12528905  0.63431288  0.47862812    -0.16900
H1759       H  0.24504760  0.70487473  0.52124058     0.11200
H1760       H  0.21526765  0.66939902  0.51493462     0.10500
H1761       H  0.21341394  0.68527531  0.43433983     0.10500
H1762       H  0.24341357  0.72100098  0.44069671     0.11000
H1763       H  0.17396915  0.59302580  0.46714378     0.11100
H1764       H  0.13925680  0.56216984  0.47028498     0.11000
H1765       H  0.08602108  0.62351104  0.48415725     0.11200
H1766       H  0.12138530  0.65447038  0.48106189     0.10000
C1767       C  0.81193828  0.28146999  0.50472111    -0.03800
C1768       C  0.80789764  0.29636289  0.48269716    -0.09600
C1769       C  0.82468083  0.31654228  0.47647091    -0.17200
C1770       C  0.84568965  0.32224719  0.49218850     0.24900
C1771       C  0.84963174  0.30758841  0.51414338    -0.18900
C1772       C  0.83308169  0.28751510  0.52030570    -0.07800
C1773       C  0.86346737  0.34284695  0.48612313    -0.14300
C1774       C  0.87934411  0.35947922  0.48259414    -0.14000
C1775       C  0.89906910  0.37895679  0.47963171     0.24800
C1776       C  0.92495145  0.37231597  0.48083889    -0.19400
C1777       C  0.94401955  0.39115435  0.47923823    -0.07900
C1778       C  0.93764612  0.41717206  0.47650446    -0.03900
C1779       C  0.91158334  0.42359568  0.47471202    -0.09300
C1780       C  0.89255259  0.40471261  0.47629934    -0.16900
H1781       H  0.79200015  0.29226048  0.47017148     0.11200
H1782       H  0.82130524  0.32762547  0.45935712     0.10500
H1783       H  0.86565145  0.31161460  0.52657242     0.10500
H1784       H  0.83696111  0.27670690  0.53748284     0.11000
H1785       H  0.93043663  0.35254463  0.48337707     0.11100
H1786       H  0.96376918  0.38532976  0.48060049     0.11000
H1787       H  0.90581003  0.44330658  0.47245418     0.11200
H1788       H  0.87270144  0.41028969  0.47526703     0.10000
C1789       C  0.22627811  0.27369984  0.47760374    -0.03800
C1790       C  0.22623266  0.28908869  0.49955321    -0.09600
C1791       C  0.21230842  0.31202330  0.50001005    -0.17200
C1792       C  0.19823455  0.31978803  0.47856051     0.24900
C1793       C  0.19934307  0.30508606  0.45626638    -0.18900
C1794       C  0.21311351  0.28219293  0.45584905    -0.07800
C1795       C  0.18106439  0.34151390  0.47989707    -0.14300
C1796       C  0.16557221  0.35871156  0.48067652    -0.14000
C1797       C  0.14635832  0.37869577  0.48131494     0.24800
C1798       C  0.12067963  0.37283503  0.47670722    -0.19400
C1799       C  0.10211357  0.39209889  0.47708583    -0.07900
C1800       C  0.10883274  0.41774220  0.48198566    -0.03900
C1801       C  0.13468598  0.42343043  0.48665896    -0.09300
C1802       C  0.15322047  0.40408373  0.48638261    -0.16900
H1803       H  0.23544029  0.28251050  0.51684020     0.11200
H1804       H  0.21153724  0.32304590  0.51746937     0.10500
H1805       H  0.18852168  0.31065247  0.43956422     0.10500
H1806       H  0.21220879  0.27026431  0.43899233     0.11000
H1807       H  0.11497804  0.35334561  0.47272358     0.11100
H1808       H  0.08249123  0.38689031  0.47326820     0.11000
H1809       H  0.14062163  0.44284368  0.49057735     0.11200
H1810       H  0.17295977  0.40897389  0.49003538     0.10000
C1811       C  0.79456578  0.70523930  0.48525995    -0.03800
C1812       C  0.80402246  0.70606898  0.46014924    -0.09600
C1813       C  0.82408940  0.68975682  0.45267729    -0.17200
C1814       C  0.83473417  0.67238930  0.47019599     0.24900
C1815       C  0.82423552  0.67058022  0.49464522    -0.18900
C1816       C  0.80446654  0.68678952  0.50209227    -0.07800
C1817       C  0.85711512  0.65711618  0.46424458    -0.14300
C1818       C  0.87566865  0.64330788  0.46279876    -0.14000
C1819       C  0.89660719  0.62512054  0.46388609     0.24800
C1820       C  0.89126311  0.59911397  0.46703191    -0.19400
C1821       C  0.91103392  0.58131133  0.46934444    -0.07900
C1822       C  0.93678796  0.58904631  0.46861871    -0.03900
C1823       C  0.94209023  0.61528704  0.46542468    -0.09300
C1824       C  0.92216767  0.63314467  0.46309196    -0.16900
H1825       H  0.79715702  0.72039835  0.44694015     0.11200
H1826       H  0.83192072  0.69139873  0.43363157     0.10500
H1827       H  0.83205599  0.65727449  0.50840655     0.10500
H1828       H  0.79775882  0.68582150  0.52161798     0.11000
H1829       H  0.87168505  0.59254619  0.46792460     0.11100
H1830       H  0.90603498  0.56140288  0.47184304     0.11000
H1831       H  0.96160185  0.62204315  0.46477893     0.11200
H1832       H  0.92671819  0.65320638  0.46087327     0.10000
C1833       C  0.24808723  0.49905148  0.27037622    -0.03800
C1834       C  0.23779454  0.52334685  0.27520703    -0.09600
C1835       C  0.22191329  0.52739159  0.29639176    -0.17200
C1836       C  0.21609282  0.50717860  0.31298854     0.24900
C1837       C  0.22803757  0.48353547  0.30941972    -0.18900
C1838       C  0.24396645  0.47954254  0.28834101    -0.07800
C1839       C  0.19590626  0.50969914  0.33177999    -0.14300
C1840       C  0.17803984  0.51047834  0.34647650    -0.14000
C1841       C  0.15643057  0.51012678  0.36382452     0.24800
C1842       C  0.16020005  0.50500623  0.38975261    -0.19400
C1843       C  0.13940807  0.50372275  0.40648335    -0.07900
C1844       C  0.11424088  0.50736794  0.39766066    -0.03900
C1845       C  0.11060218  0.51275553  0.37157274    -0.09300
C1846       C  0.13153058  0.51414180  0.35483338    -0.16900
H1847       H  0.23973878  0.53839261  0.26114470     0.11200
H1848       H  0.21274760  0.54575719  0.29875669     0.10500
H1849       H  0.22363893  0.46763439  0.32190279     0.10500
H1850       H  0.25072641  0.46038402  0.28451555     0.11000
H1851       H  0.17925350  0.50180248  0.39706270     0.11100
H1852       H  0.14310595  0.49958071  0.42638080     0.11000
H1853       H  0.09162418  0.51595627  0.36410880     0.11200
H1854       H  0.12825785  0.51816510  0.33482723     0.10000
C1855       C  0.93899927  0.49791190  0.38990072    -0.03800
C1856       C  0.94355499  0.50323065  0.36394137    -0.09600
C1857       C  0.92353778  0.50226379  0.34599623    -0.17200
C1858       C  0.89864205  0.49573805  0.35356688     0.24900
C1859       C  0.89411643  0.48991971  0.37923831    -0.18900
C1860       C  0.91396681  0.49100428  0.39715241    -0.07800
C1861       C  0.87751924  0.49617818  0.33544602    -0.14300
C1862       C  0.85975312  0.49837407  0.32065819    -0.14000
C1863       C  0.83951592  0.50461625  0.30264397     0.24800
C1864       C  0.82160835  0.48643845  0.29411268    -0.19400
C1865       C  0.80303905  0.49309822  0.27573325    -0.07900
C1866       C  0.80226042  0.51800979  0.26561164    -0.03900
C1867       C  0.81983161  0.53613243  0.27503480    -0.09300
C1868       C  0.83814647  0.52951391  0.29319176    -0.16900
H1869       H  0.96244386  0.50864547  0.35758785     0.11200
H1870       H  0.92743630  0.50695312  0.32624941     0.10500
H1871       H  0.87509186  0.48487054  0.38554422     0.10500
H1872       H  0.90958166  0.48653269  0.41684121     0.11000
H1873       H  0.82228179  0.46705407  0.30127823     0.11100
H1874       H  0.78997671  0.47863409  0.26884008     0.11000
H1875       H  0.81983632  0.55556427  0.26795775     0.11200
H1876       H  0.85161123  0.54386955  0.29957434     0.10000
C1877       C  0.22831127  0.51581953  0.70679497    -0.03800
C1878       C  0.21031902  0.53490915  0.70133036    -0.09600
C1879       C  0.19585183  0.53406096  0.67897492    -0.17200
C1880       C  0.19896580  0.51403115  0.66163614     0.24900
C1881       C  0.21793658  0.49562036  0.66617180    -0.18900
C1882       C  0.23259995  0.49651955  0.68868089    -0.07800
C1883       C  0.18126295  0.51174368  0.64048218    -0.14300
C1884       C  0.16496666  0.51092718  0.62407718    -0.14000
C1885       C  0.14510638  0.51054588  0.60479027     0.24800
C1886       C  0.15161567  0.51112069  0.57892118    -0.19400
C1887       C  0.13261527  0.51044187  0.56015771    -0.07900
C1888       C  0.10657128  0.50917810  0.56683757    -0.03900
C1889       C  0.10014943  0.50898846  0.59293557    -0.09300
C1890       C  0.11926651  0.50964866  0.61172537    -0.16900
H1891       H  0.20631844  0.54967234  0.71523096     0.11200
H1892       H  0.18131583  0.54840060  0.67584000     0.10500
H1893       H  0.22055558  0.47994905  0.65296066     0.10500
H1894       H  0.24585364  0.48121903  0.69276829     0.11000
H1895       H  0.17144870  0.51197208  0.57320379     0.11100
H1896       H  0.13843268  0.51079610  0.54034481     0.11000
H1897       H  0.08039143  0.50811453  0.59885391     0.11200
H1898       H  0.11387896  0.50933049  0.63167226     0.10000
C1899       C  0.93333438  0.50906799  0.55964896    -0.03800
C1900       C  0.93817638  0.51640829  0.58506299    -0.09600
C1901       C  0.91811750  0.51932812  0.60259698    -0.17200
C1902       C  0.89276478  0.51487814  0.59523772     0.24900
C1903       C  0.88777763  0.50734718  0.57004123    -0.18900
C1904       C  0.90780024  0.50454225  0.55242510    -0.07800
C1905       C  0.87211764  0.51767973  0.61369170    -0.14300
C1906       C  0.85597877  0.51948979  0.63029669    -0.14000
C1907       C  0.83880547  0.52030838  0.65218907     0.24800
C1908       C  0.81219123  0.52249962  0.64937301    -0.19400
C1909       C  0.79596289  0.52101123  0.67084073    -0.07900
C1910       C  0.80615463  0.51700293  0.69535963    -0.03900
C1911       C  0.83288389  0.51590610  0.69798359    -0.09300
C1912       C  0.84895021  0.51761970  0.67672927    -0.16900
H1913       H  0.95746993  0.52024660  0.59135870     0.11200
H1914       H  0.92242204  0.52511306  0.62196402     0.10500
H1915       H  0.86837896  0.50367008  0.56395576     0.10500
H1916       H  0.90324960  0.49879070  0.53311312     0.11000
H1917       H  0.80393324  0.52460500  0.63055389     0.11100
H1918       H  0.77551006  0.52162983  0.66812198     0.11000
H1919       H  0.84141996  0.51289917  0.71656209     0.11200
H1920       H  0.86937178  0.51601792  0.67940791     0.10000
C1921       C  0.04461456  0.58533747  0.39205368    -0.03800
C1922       C  0.05443949  0.57654372  0.36863135    -0.09600
C1923       C  0.06543889  0.59358506  0.35131386    -0.17200
C1924       C  0.06684595  0.61957313  0.35719306     0.24900
C1925       C  0.05699502  0.62854680  0.38030195    -0.18900
C1926       C  0.04604572  0.61155893  0.39768513    -0.07800
C1927       C  0.07548529  0.63751401  0.33840870    -0.14300
C1928       C  0.07725987  0.65385606  0.32240448    -0.14000
C1929       C  0.07089105  0.67345143  0.30446267     0.24800
C1930       C  0.06364953  0.69739817  0.31371908    -0.19400
C1931       C  0.04881064  0.71354378  0.29865690    -0.07900
C1932       C  0.04092578  0.70574170  0.27423075    -0.03900
C1933       C  0.05072929  0.68289044  0.26406637    -0.09300
C1934       C  0.06551377  0.66674151  0.27921667    -0.16900
H1935       H  0.05397467  0.55644848  0.36379736     0.11200
H1936       H  0.07258116  0.58653709  0.33325085     0.10500
H1937       H  0.05750775  0.64874435  0.38475654     0.10500
H1938       H  0.03879771  0.61895889  0.41554687     0.11000
H1939       H  0.06747929  0.70262586  0.33335097     0.11100
H1940       H  0.04185709  0.73113668  0.30694437     0.11000
H1941       H  0.04526492  0.67642805  0.24522010     0.11200
H1942       H  0.07078668  0.64810621  0.27197877     0.10000
C1943       C  0.02556990  0.42138550  0.56644806    -0.03800
C1944       C  0.03382622  0.39635260  0.56126700    -0.09600
C1945       C  0.03525956  0.37821634  0.58081613    -0.17200
C1946       C  0.02839448  0.38481484  0.60574973     0.24900
C1947       C  0.02052008  0.40972824  0.61117155    -0.18900
C1948       C  0.01919615  0.42792665  0.59170461    -0.07800
C1949       C  0.02757415  0.36563525  0.62538164    -0.14300
C1950       C  0.02454438  0.34938672  0.64138352    -0.14000
C1951       C  0.01833141  0.32981644  0.65960704     0.24800
C1952       C  0.01356061  0.33621492  0.68506613    -0.19400
C1953       C  0.00565023  0.31743778  0.70230542    -0.07900
C1954       C  0.00240801  0.29197714  0.69426220    -0.03900
C1955       C  0.00756820  0.28571573  0.66869118    -0.09300
C1956       C  0.01543001  0.30453659  0.65149773    -0.16900
H1957       H  0.03915161  0.39076191  0.54211293     0.11200
H1958       H  0.04129639  0.35894423  0.57639893     0.10500
H1959       H  0.01498028  0.41497962  0.63037580     0.10500
H1960       H  0.01277548  0.44699835  0.59637642     0.11000
H1961       H  0.01557249  0.35577250  0.69150023     0.11100
H1962       H  0.00189311  0.32293314  0.72185665     0.11000
H1963       H  0.00522609  0.26635116  0.66184955     0.11200
H1964       H  0.01886937  0.29943743  0.63177021     0.10000
C1965       C  0.00446439  0.59004069  0.55935530    -0.03800
C1966       C  0.99688399  0.58264020  0.58404181    -0.09600
C1967       C  0.98343282  0.59950082  0.59952607    -0.17200
C1968       C  0.97745902  0.62391597  0.59061341     0.24900
C1969       C  0.98645184  0.63215291  0.56690644    -0.18900
C1970       C  0.99992497  0.61529383  0.55131290    -0.07800
C1971       C  0.96156419  0.63999519  0.60584566    -0.14300
C1972       C  0.94956265  0.65147569  0.62157419    -0.14000
C1973       C  0.94021385  0.66327262  0.64427499     0.24800
C1974       C  0.93565214  0.68952953  0.64473869    -0.19400
C1975       C  0.93473993  0.70227510  0.66807207    -0.07900
C1976       C  0.93877700  0.68880903  0.69098833    -0.03900
C1977       C  0.94020367  0.66204599  0.69037063    -0.09300
C1978       C  0.94103713  0.64935764  0.66703696    -0.16900
H1979       H  0.00007712  0.56340654  0.59092063     0.11200
H1980       H  0.97685284  0.59316055  0.61808416     0.10500
H1981       H  0.98225641  0.65122471  0.56009936     0.10500
H1982       H  0.00562291  0.62165160  0.53249780     0.11000
H1983       H  0.93499389  0.70042645  0.62717261     0.11100
H1984       H  0.93317973  0.72289525  0.66801902     0.11000
H1985       H  0.94320731  0.65113507  0.70766324     0.11200
H1986       H  0.94465572  0.62899019  0.66676494     0.10000
C1987       C  0.97524857  0.38974733  0.08838837    -0.03800
C1988       C  0.96345749  0.39290385  0.11232346    -0.09600
C1989       C  0.96164379  0.37232959  0.12958643    -0.17200
C1990       C  0.97176656  0.34828914  0.12337624     0.24900
C1991       C  0.98396007  0.34519887  0.09980472    -0.18900
C1992       C  0.98559607  0.36559340  0.08250289    -0.07800
C1993       C  0.97014952  0.32689751  0.14116001    -0.14300
C1994       C  0.97025303  0.30896205  0.15594984    -0.14000
C1995       C  0.97314014  0.28821165  0.17428399     0.24800
C1996       C  0.95460122  0.28344417  0.19307940    -0.19400
C1997       C  0.95975016  0.26655813  0.21337804    -0.07900
C1998       C  0.98347747  0.25418879  0.21508310    -0.03900
C1999       C  0.00109708  0.25762061  0.19514755    -0.09300
C2000       C  0.99597677  0.27439699  0.17496221    -0.16900
H2001       H  0.95519810  0.41111010  0.11749417     0.11200
H2002       H  0.95225528  0.37517287  0.14776236     0.10500
H2003       H  0.99214675  0.32692378  0.09469397     0.10500
H2004       H  0.99503792  0.36240808  0.06441285     0.11000
H2005       H  0.93685393  0.29398525  0.19297388     0.11100
H2006       H  0.94622060  0.26506910  0.22891816     0.11000
H2007       H  0.01985416  0.24907565  0.19642379     0.11200
H2008       H  0.01059254  0.27783508  0.16076308     0.10000
C2009       C  0.98939224  0.19851211  0.29359544    -0.03800
C2010       C  0.99773231  0.19756175  0.31922193    -0.09600
C2011       C  0.99194536  0.17676940  0.33490215    -0.17200
C2012       C  0.97773924  0.15624754  0.32550075     0.24900
C2013       C  0.96912909  0.15689783  0.30010644    -0.18900
C2014       C  0.97486390  0.17790657  0.28425631    -0.07800
C2015       C  0.97274508  0.13460251  0.34210757    -0.14300
C2016       C  0.97035784  0.11755498  0.35761925    -0.14000
C2017       C  0.96912752  0.09823922  0.37746692     0.24800
C2018       C  0.96618672  0.07235190  0.37131579    -0.19400
C2019       C  0.96601733  0.05372794  0.39060436    -0.07900
C2020       C  0.96873444  0.06068985  0.41645646    -0.03900
C2021       C  0.97150686  0.08678081  0.42240259    -0.09300
C2022       C  0.97173074  0.10531319  0.40311055    -0.16900
H2023       H  0.00886330  0.21295912  0.32736825     0.11200
H2024       H  0.99875996  0.17665392  0.35442534     0.10500
H2025       H  0.95813444  0.14111990  0.29250754     0.10500
H2026       H  0.96819673  0.17789135  0.26471388     0.11000
H2027       H  0.96426008  0.06651963  0.35158535     0.11100
H2028       H  0.96390436  0.03387676  0.38522856     0.11000
H2029       H  0.97384870  0.09292558  0.44198305     0.11200
H2030       H  0.97418411  0.12520744  0.40821891     0.10000
C2031       C  0.03625405  0.41703916  0.39621731    -0.03800
C2032       C  0.03906010  0.39153675  0.40416654    -0.09600
C2033       C  0.04682252  0.37288253  0.38690322    -0.17200
C2034       C  0.05192192  0.37947367  0.36157564     0.24900
C2035       C  0.04877070  0.40463089  0.35331310    -0.18900
C2036       C  0.04100615  0.42335557  0.37053169    -0.07800
C2037       C  0.05847686  0.35993438  0.34374351    -0.14300
C2038       C  0.06030280  0.34224230  0.32935143    -0.14000
C2039       C  0.05655844  0.32038795  0.31349692     0.24800
C2040       C  0.04861159  0.32378674  0.28830166    -0.19400
C2041       C  0.03868624  0.30320704  0.27468795    -0.07900
C2042       C  0.03626929  0.27908796  0.28633913    -0.03900
C2043       C  0.04613470  0.27546130  0.31101337    -0.09300
C2044       C  0.05617166  0.29608615  0.32454977    -0.16900
H2045       H  0.03562540  0.38601546  0.42377989     0.11200
H2046       H  0.04880816  0.35330386  0.39329451     0.10500
H2047       H  0.05227141  0.40975370  0.33359012     0.10500
H2048       H  0.03909230  0.44280210  0.36377825     0.11000
H2049       H  0.04856192  0.34262782  0.27973793     0.11100
H2050       H  0.03138099  0.30665348  0.25567537     0.11000
H2051       H  0.04472993  0.25710040  0.32042147     0.11200
H2052       H  0.06206882  0.29340637  0.34418204     0.10000
loop_ 
_geom_bond_atom_site_label_1 
_geom_bond_atom_site_label_2 
_geom_bond_distance 
_geom_bond_site_symmetry_2 
_ccdc_geom_bond_type 
C1            N2   1.372       .  A
C1            N6   1.352   1_655  A
C1         C1998   1.480       .  S
N2            C3   1.375       .  A
C3            N4   1.360   1_655  A
C3         C2009   1.498       .  S
N4            C5   1.352       .  A
C5            N6   1.348       .  A
C5         C2042   1.476       .  S
O7           C18   1.291       .  A
O7          Eu43   2.451       .  S
O8           C19   1.291       .  A
O8          Eu42   2.458       .  S
O9           C20   1.301       .  A
O9          Eu15   2.516   1_655  S
O10          C21   1.298       .  A
O10         Eu15   2.501       .  S
O11          C21   1.291       .  A
O11         Eu45   2.455       .  S
O12          C20   1.291       .  A
O12         Eu44   2.454       .  S
O13          C19   1.289       .  A
O13         Eu15   2.444       .  S
O14          C18   1.289       .  A
O14         Eu15   2.442       .  S
Eu15         O25   2.363       .  S
Eu15         O17   2.360   1_455  S
Eu15         O16   2.347       .  S
Eu15         O23   2.363   1_455  S
O16         Eu45   2.344       .  S
O16         Eu42   2.341       .  S
O17         Eu43   2.357   1_655  S
O17         Eu44   2.355       .  S
C18        C2031   1.475       .  S
C19        C1921   1.480       .  S
C20        C1855   1.503       .  S
C21        C1844   1.497       .  S
H22          O23   0.966       .  S
O23         Eu44   2.376       .  S
O23         Eu42   2.373   1_655  S
H24          O25   0.965       .  S
O25         Eu43   2.360       .  S
O25         Eu45   2.353       .  S
O26          C49   1.291       .  A
O26         Eu42   2.454       .  S
O27          C50   1.293       .  A
O27         Eu43   2.465       .  S
O28          C51   1.295       .  A
O28         Eu44   2.475       .  S
O29          C52   1.294       .  A
O29         Eu45   2.471       .  S
O30          C53   1.297       .  A
O30         Eu45   2.493       .  S
O31          C54   1.295       .  A
O31         Eu44   2.480       .  S
O32          C55   1.297       .  A
O32         Eu46   2.486   1_655  S
O33          C56   1.297       .  A
O33         Eu46   2.493       .  S
O34          C55   1.294       .  A
O34         Eu44   2.475       .  S
O35          C56   1.291       .  A
O35         Eu45   2.453       .  S
O36          C51   1.296       .  A
O36         Eu42   2.484   1_655  S
O37          C54   1.296       .  A
O37         Eu43   2.481   1_655  S
O38          C53   1.293       .  A
O38         Eu43   2.464       .  S
O39          C52   1.296       .  A
O39         Eu42   2.489       .  S
O40          C49   1.289       .  A
O40         Eu46   2.439       .  S
O41          C50   1.291       .  A
O41         Eu46   2.453       .  S
Eu42         O60   2.368       .  S
Eu42         O48   2.351   1_455  S
Eu43         O47   2.356       .  S
Eu43         O58   2.357   1_455  S
Eu44         O58   2.364       .  S
Eu44         O48   2.347       .  S
Eu45         O47   2.351       .  S
Eu45         O60   2.366       .  S
Eu46         O47   2.353       .  S
Eu46         O58   2.363   1_455  S
Eu46         O60   2.363       .  S
Eu46         O48   2.352   1_455  S
C49        C1965   1.478       .  S
C50        C1943   1.483       .  S
C51        C1822   1.499       .  S
C52        C1756   1.500       .  S
C53        C1800   1.498       .  S
C54        C1778   1.502       .  S
C55        C1899   1.500       .  S
C56        C1888   1.496       .  S
H57          O58   0.966       .  S
H59          O60   0.966       .  S
C61          N62   1.360       .  A
C61          N66   1.371       .  A
C61        C1701   1.489       .  S
N62          C63   1.353       .  A
C63          N64   1.347       .  A
C63        C1976   1.473       .  S
N64          C65   1.350       .  A
C65          N66   1.367       .  A
C65        C1723   1.469       .  S
C67          N68   1.369       .  A
C67          N72   1.356       .  A
C67        C1668   1.480       .  S
N68          C69   1.369       .  A
C69          N70   1.358       .  A
C69        C1690   1.480       .  S
N70          C71   1.353       .  A
C71          N72   1.351       .  A
C71        C1954   1.481   1_655  S
C73          N74   1.356   1_655  A
C73          N78   1.373       .  A
C73        C1624   1.485       .  S
N74          C75   1.350       .  A
C75          N76   1.353       .  A
C75        C1932   1.478       .  S
N76          C77   1.356   1_455  A
C77          N78   1.373       .  A
C77        C1635   1.481       .  S
O79          C90   1.294       .  A
O79        Eu115   2.468   1_545  S
O80          C91   1.292       .  A
O80        Eu114   2.457   1_545  S
O81          C92   1.292       .  A
O81         Eu87   2.454       .  S
O82          C93   1.293       .  A
O82         Eu87   2.471   1_455  S
O83          C93   1.287       .  A
O83        Eu117   2.430   1_545  S
O84          C92   1.289       .  A
O84        Eu116   2.442   1_545  S
O85          C91   1.296       .  A
O85         Eu87   2.487       .  S
O86          C90   1.295       .  A
O86         Eu87   2.475       .  S
Eu87         O97   2.355       .  S
Eu87         O89   2.367       .  S
Eu87         O88   2.358   1_655  S
Eu87         O95   2.358       .  S
O88        Eu117   2.353   1_545  S
O88        Eu114   2.356   1_445  S
O89        Eu115   2.362   1_545  S
O89        Eu116   2.359   1_545  S
C90        C2020   1.494       .  S
C91        C1679   1.494       .  S
C92        C1580   1.470       .  S
C93        C1602   1.480       .  S
H94          O95   0.965       .  S
O95        Eu116   2.362   1_545  S
O95        Eu114   2.351   1_545  S
H96          O97   0.966   1_455  S
O97        Eu115   2.349   1_545  S
O97        Eu117   2.343   1_645  S
O98         C121   1.292       .  A
O98        Eu114   2.460       .  S
O99         C122   1.290       .  A
O99        Eu115   2.449       .  S
O100        C123   1.296       .  A
O100       Eu116   2.486       .  S
O101        C124   1.293       .  A
O101       Eu117   2.470       .  S
O102        C125   1.294       .  A
O102       Eu117   2.475       .  S
O103        C126   1.299       .  A
O103       Eu116   2.507       .  S
O104        C127   1.291       .  A
O104       Eu118   2.452       .  S
O105        C128   1.294       .  A
O105       Eu118   2.472   1_455  S
O106        C127   1.289       .  A
O106       Eu116   2.440       .  S
O107        C128   1.285       .  A
O107       Eu117   2.417       .  S
O108        C123   1.294       .  A
O108       Eu114   2.473       .  S
O109        C126   1.292       .  A
O109       Eu115   2.459       .  S
O110        C125   1.294       .  A
O110       Eu115   2.478   1_455  S
O111        C124   1.294       .  A
O111       Eu114   2.474   1_455  S
O112        C121   1.297       .  A
O112       Eu118   2.489       .  S
O113        C122   1.300       .  A
O113       Eu118   2.509       .  S
Eu114       O132   2.351   1_655  S
Eu114       O120   2.345       .  S
Eu115       O119   2.354   1_655  S
Eu115       O130   2.369       .  S
Eu116       O130   2.362       .  S
Eu116       O120   2.348       .  S
Eu117       O119   2.350       .  S
Eu117       O132   2.351       .  S
Eu118       O119   2.354   1_655  S
Eu118       O130   2.373       .  S
Eu118       O132   2.363   1_655  S
Eu118       O120   2.347       .  S
C121       C1734   1.495       .  S
C122       C1646   1.501       .  S
C123       C1448   1.499       .  S
C124       C1459   1.496       .  S
C125       C1481   1.498       .  S
C126       C1514   1.504       .  S
C127       C1558   1.478       .  S
C128       C1525   1.475       .  S
H129        O130   0.967       .  S
H131        O132   0.965       .  S
C133        N134   1.354       .  A
C133        N138   1.370       .  A
C133       C1789   1.478       .  S
N134        C135   1.352       .  A
C135        N136   1.354       .  A
C135       C1591   1.476       .  S
N136        C137   1.359       .  A
C137        N138   1.371       .  A
C137       C1415   1.488       .  S
C139        N140   1.351       .  A
C139        N144   1.372       .  A
C139       C1404   1.479       .  S
N140        C141   1.349       .  A
C141        N142   1.355       .  A
C141       C1569   1.477       .  S
N142        C143   1.361       .  A
C143        N144   1.375       .  A
C143       C1767   1.501       .  S
C145        N146   1.354       .  A
C145        N150   1.373       .  A
C145       C1382   1.481       .  S
N146        C147   1.351       .  A
C147        N148   1.351       .  A
C147       C1547   1.478       .  S
N148        C149   1.356       .  A
C149        N150   1.373       .  A
C149       C1811   1.488       .  S
C151        N152   1.353       .  A
C151        N156   1.370       .  A
C151       C1745   1.477       .  S
N152        C153   1.349       .  A
C153        N154   1.351       .  A
C153       C1536   1.476       .  S
N154        C155   1.359       .  A
C155        N156   1.373       .  A
C155       C1349   1.491       .  S
C157        N158   1.375       .  A
C157        N162   1.355   1_565  A
C157       C1305   1.496       .  S
N158        C159   1.376       .  A
C159        N160   1.356   1_565  A
C159       C1503   1.483       .  S
N160        C161   1.351       .  A
C161        N162   1.348       .  A
C161       C1327   1.476       .  S
O163        C174   1.293       .  A
O163       Eu199   2.471       .  S
O164        C175   1.290       .  A
O164       Eu198   2.452       .  S
O165        C176   1.290       .  A
O165       Eu171   2.440       .  S
O166        C177   1.292       .  A
O166       Eu171   2.460   1_565  S
O167        C177   1.290       .  A
O167       Eu201   2.447   1_565  S
O168        C176   1.292       .  A
O168       Eu200   2.465       .  S
O169        C175   1.296       .  A
O169       Eu171   2.481   1_565  S
O170        C174   1.297       .  A
O170       Eu171   2.490       .  S
Eu171       O181   2.359       .  S
Eu171       O173   2.354       .  S
Eu171       O172   2.348   1_545  S
Eu171       O179   2.367   1_545  S
O172       Eu201   2.349   1_565  S
O172       Eu198   2.349       .  S
O173       Eu199   2.350       .  S
O173       Eu200   2.365       .  S
C174       C1426   1.501       .  S
C175       C1360   1.488       .  S
C176       C1239   1.477       .  S
C177       C1283   1.481       .  S
H178        O179   0.968       .  S
O179       Eu200   2.360   1_565  S
O179       Eu198   2.358       .  S
H180        O181   0.965       .  S
O181       Eu199   2.355       .  S
O181       Eu201   2.363       .  S
O182        C205   1.290       .  A
O182       Eu198   2.448       .  S
O183        C206   1.293       .  A
O183       Eu199   2.465       .  S
O184        C207   1.296       .  A
O184       Eu200   2.488   1_565  S
O185        C208   1.295       .  A
O185       Eu201   2.478   1_565  S
O186        C209   1.297       .  A
O186       Eu201   2.495       .  S
O187        C210   1.294       .  A
O187       Eu200   2.473       .  S
O188        C211   1.287       .  A
O188       Eu202   2.430       .  S
O189        C212   1.291       .  A
O189       Eu202   2.452       .  S
O190        C211   1.293       .  A
O190       Eu200   2.464       .  S
O191        C212   1.289       .  A
O191       Eu201   2.438       .  S
O192        C207   1.291       .  A
O192       Eu198   2.455       .  S
O193        C210   1.292       .  A
O193       Eu199   2.458       .  S
O194        C209   1.292       .  A
O194       Eu199   2.463       .  S
O195        C208   1.291       .  A
O195       Eu198   2.456       .  S
O196        C205   1.300       .  A
O196       Eu202   2.512   1_565  S
O197        C206   1.296       .  A
O197       Eu202   2.486       .  S
Eu198       O216   2.365       .  S
Eu198       O204   2.353       .  S
Eu199       O203   2.346       .  S
Eu199       O214   2.346       .  S
Eu200       O214   2.348       .  S
Eu200       O204   2.361   1_545  S
Eu201       O203   2.340       .  S
Eu201       O216   2.370   1_545  S
Eu202       O203   2.353       .  S
Eu202       O214   2.355       .  S
Eu202       O216   2.354   1_545  S
Eu202       O204   2.358   1_545  S
C205       C1371   1.502       .  S
C206       C1393   1.494       .  S
C207       C1184   1.493       .  S
C208       C1217   1.489       .  S
C209       C1206   1.502       .  S
C210       C1151   1.487       .  S
C211       C1338   1.472       .  S
C212       C1261   1.478       .  S
H213        O214   0.964       .  S
H215        O216   0.969       .  S
C217        N218   1.375       .  A
C217        N222   1.357       .  A
C217       C1129   1.482       .  S
N218        C219   1.375       .  A
C219        N220   1.355       .  A
C219       C1470   1.498       .  S
N220        C221   1.348       .  A
C221        N222   1.350       .  A
C221       C1294   1.475       .  S
C223        N224   1.373   1_545  A
C223        N228   1.359       .  A
C223       C1107   1.495   1_545  S
N224        C225   1.371       .  A
C225        N226   1.352   1_565  A
C225       C1437   1.477       .  S
N226        C227   1.349       .  A
C227        N228   1.352       .  A
C227       C1272   1.477       .  S
C229        N230   1.371       .  A
C229        N234   1.350       .  A
C229       C1096   1.480       .  S
N230        C231   1.375       .  A
C231        N232   1.364       .  A
C231       C1492   1.498       .  S
N232        C233   1.357   1_565  A
C233        N234   1.349   1_545  A
C233       C1250   1.479       .  S
O235        C246   1.291       .  A
O235       Eu271   2.452       .  S
O236        C247   1.293       .  A
O236       Eu270   2.471       .  S
O237        C248   1.291       .  A
O237       Eu243   2.455   1_545  S
O238        C249   1.290       .  A
O238       Eu243   2.447       .  S
O239        C249   1.291       .  A
O239       Eu273   2.451   1_554  S
O240        C248   1.291       .  A
O240       Eu272   2.451       .  S
O241        C247   1.299       .  A
O241       Eu243   2.503       .  S
O242        C246   1.298       .  A
O242       Eu243   2.496       .  S
Eu243       O253   2.374       .  S
Eu243       O245   2.359   1_565  S
Eu243       O244   2.343       .  S
Eu243       O251   2.359   1_565  S
O244       Eu273   2.352   1_554  S
O244       Eu270   2.345       .  S
O245       Eu271   2.357   1_545  S
O245       Eu272   2.360       .  S
C246       C1316   1.496       .  S
C247       C1085   1.506       .  S
C248       C1063   1.477       .  S
C249       C1041   1.478       .  S
H250        O251   0.965       .  S
O251       Eu272   2.360       .  S
O251       Eu270   2.344   1_545  S
H252        O253   0.967       .  S
O253       Eu271   2.369       .  S
O253       Eu273   2.367   1_554  S
O254        C277   1.293       .  A
O254       Eu270   2.466   1_556  S
O255        C278   1.294       .  A
O255       Eu271   2.471   1_556  S
O256        C279   1.296       .  A
O256       Eu272   2.485       .  S
O257        C280   1.295       .  A
O257       Eu273   2.481       .  S
O258        C281   1.297       .  A
O258       Eu273   2.494       .  S
O259        C282   1.295       .  A
O259       Eu272   2.479       .  S
O260        C283   1.288       .  A
O260       Eu274   2.435   1_545  S
O261        C284   1.289       .  A
O261       Eu274   2.439       .  S
O262        C283   1.294       .  A
O262       Eu272   2.473   1_556  S
O263        C284   1.291       .  A
O263       Eu273   2.454       .  S
O264        C279   1.291       .  A
O264       Eu270   2.457   1_545  S
O265        C282   1.294       .  A
O265       Eu271   2.475   1_545  S
O266        C281   1.294       .  A
O266       Eu271   2.469   1_556  S
O267        C280   1.289       .  A
O267       Eu270   2.439   1_556  S
O268        C277   1.295       .  A
O268       Eu274   2.480       .  S
O269        C278   1.294       .  A
O269       Eu274   2.475       .  S
Eu270       O288   2.353   1_554  S
Eu270       O276   2.348   1_564  S
Eu271       O275   2.354   1_554  S
Eu271       O286   2.357   1_564  S
Eu272       O286   2.359   1_554  S
Eu272       O276   2.351   1_554  S
Eu273       O275   2.354       .  S
Eu273       O288   2.364       .  S
Eu274       O275   2.353       .  S
Eu274       O286   2.356   1_565  S
Eu274       O288   2.353       .  S
Eu274       O276   2.353   1_565  S
C277       C1140   1.496       .  S
C278       C1118   1.495       .  S
C279        C975   1.495       .  S
C280        C931   1.487       .  S
C281        C964   1.502       .  S
C282        C909   1.496       .  S
C283        C997   1.480       .  S
C284       C1030   1.472       .  S
H285        O286   0.966       .  S
H287        O288   0.965       .  S
C289        N290   1.350       .  A
C289        N294   1.372       .  A
C289       C1162   1.475       .  S
N290        C291   1.347       .  A
C291        N292   1.353       .  A
C291       C1074   1.477       .  S
N292        C293   1.361       .  A
C293        N294   1.374       .  A
C293        C898   1.493       .  S
C295        N296   1.356       .  A
C295        N300   1.369       .  A
C295        C865   1.475       .  S
N296        C297   1.353       .  A
C297        N298   1.352       .  A
C297       C1052   1.478       .  S
N298        C299   1.355       .  A
C299        N300   1.369       .  A
C299       C1173   1.474       .  S
C301        N302   1.353       .  A
C301        N306   1.369       .  A
C301        C854   1.476       .  S
N302        C303   1.349       .  A
C303        N304   1.350       .  A
C303       C1019   1.471       .  S
N304        C305   1.357       .  A
C305        N306   1.372       .  A
C305       C1228   1.483       .  S
C307        N308   1.357       .  A
C307        N312   1.374       .  A
C307       C1195   1.490       .  S
N308        C309   1.350       .  A
C309        N310   1.351       .  A
C309       C1008   1.480       .  S
N310        C311   1.358       .  A
C311        N312   1.374       .  A
C311        C832   1.492       .  S
O313        C324   1.291       .  A
O313       Eu349   2.457       .  S
O314        C325   1.292       .  A
O314       Eu348   2.457       .  S
O315        C326   1.289       .  A
O315       Eu321   2.445   1_455  S
O316        C327   1.289       .  A
O316       Eu321   2.437       .  S
O317        C327   1.290       .  A
O317       Eu351   2.442   1_554  S
O318        C326   1.290       .  A
O318       Eu350   2.442       .  S
O319        C325   1.297       .  A
O319       Eu321   2.493       .  S
O320        C324   1.299       .  A
O320       Eu321   2.508       .  S
Eu321       O331   2.362       .  S
Eu321       O323   2.346   1_655  S
Eu321       O322   2.342       .  S
Eu321       O329   2.366   1_655  S
O322       Eu351   2.342   1_554  S
O322       Eu348   2.335       .  S
O323       Eu349   2.342   1_455  S
O323       Eu350   2.355       .  S
C324       C1987   1.500       .  S
C325       C1613   1.496       .  S
C326        C777   1.473       .  S
C327        C799   1.475       .  S
H328        O329   0.966       .  S
O329       Eu350   2.355       .  S
O329       Eu348   2.361   1_455  S
H330        O331   0.966       .  S
O331       Eu349   2.371       .  S
O331       Eu351   2.371   1_554  S
O332        C355   1.290       .  A
O332       Eu348   2.448   1_556  S
O333        C356   1.291       .  A
O333       Eu349   2.454   1_556  S
O334        C357   1.294       .  A
O334       Eu350   2.473       .  S
O335        C358   1.296       .  A
O335       Eu351   2.486       .  S
O336        C359   1.299       .  A
O336       Eu351   2.500   1_554  S
O337        C360   1.293       .  A
O337       Eu350   2.462       .  S
O338        C361   1.290       .  A
O338       Eu352   2.450   1_455  S
O339        C362   1.289       .  A
O339       Eu352   2.440       .  S
O340        C361   1.293       .  A
O340       Eu350   2.467   1_556  S
O341        C362   1.291       .  A
O341       Eu351   2.454       .  S
O342        C357   1.296       .  A
O342       Eu348   2.489   1_455  S
O343        C360   1.295       .  A
O343       Eu349   2.478   1_455  S
O344        C359   1.293       .  A
O344       Eu349   2.468       .  S
O345        C358   1.296       .  A
O345       Eu348   2.483   1_556  S
O346        C355   1.296       .  A
O346       Eu352   2.484       .  S
O347        C356   1.295       .  A
O347       Eu352   2.480       .  S
Eu348       O366   2.375   1_554  S
Eu348       O354   2.350   1_654  S
Eu349       O353   2.348   1_554  S
Eu349       O364   2.370   1_654  S
Eu350       O364   2.357   1_554  S
Eu350       O354   2.347   1_554  S
Eu351       O353   2.343       .  S
Eu351       O366   2.369       .  S
Eu352       O353   2.352       .  S
Eu352       O364   2.360   1_655  S
Eu352       O366   2.359       .  S
Eu352       O354   2.353   1_655  S
C355       C1712   1.489       .  S
C356       C1657   1.489       .  S
C357        C689   1.501       .  S
C358        C645   1.502       .  S
C359        C678   1.501       .  S
C360        C711   1.494       .  S
C361        C755   1.482       .  S
C362        C733   1.477       .  S
H363        O364   0.966       .  S
H365        O366   0.966       .  S
C367        N368   1.358       .  A
C367        N372   1.374       .  A
C367       C1866   1.496       .  S
N368        C369   1.352       .  A
C369        N370   1.349       .  A
C369        C810   1.477       .  S
N370        C371   1.353       .  A
C371        N372   1.372       .  A
C371        C634   1.475       .  S
C373        N374   1.363       .  A
C373        N378   1.374       .  A
C373        C612   1.495       .  S
N374        C375   1.355       .  A
C375        N376   1.345       .  A
C375        C788   1.474       .  S
N376        C377   1.348       .  A
C377        N378   1.369       .  A
C377       C1833   1.471       .  S
C379        N380   1.371       .  A
C379        N384   1.359       .  A
C379        C590   1.487       .  S
N380        C381   1.370       .  A
C381        N382   1.356       .  A
C381       C1877   1.478       .  S
N382        C383   1.351       .  A
C383        N384   1.353       .  A
C383        C766   1.480       .  S
C385        N386   1.361       .  A
C385        N390   1.376       .  A
C385       C1910   1.495       .  S
N386        C387   1.354       .  A
C387        N388   1.347       .  A
C387        C744   1.476       .  S
N388        C389   1.350       .  A
C389        N390   1.373       .  A
C389        C557   1.479       .  S
C391        N392   1.373       .  A
C391        N396   1.359       .  A
C391        C722   1.491       .  S
N392        C393   1.371       .  A
C393        N394   1.353       .  A
C393        C986   1.481       .  S
N394        C395   1.350       .  A
C395        N396   1.353       .  A
C395        C535   1.479   1_554  S
O397        C408   1.295       .  A
O397       Eu433   2.479       .  S
O398        C409   1.293       .  A
O398       Eu432   2.466       .  S
O399        C410   1.291       .  A
O399       Eu405   2.454       .  S
O400        C411   1.290       .  A
O400       Eu405   2.442       .  S
O401        C411   1.289       .  A
O401       Eu435   2.442       .  S
O402        C410   1.292       .  A
O402       Eu434   2.454       .  S
O403        C409   1.295       .  A
O403       Eu405   2.479       .  S
O404        C408   1.295       .  A
O404       Eu405   2.483   1_554  S
Eu405       O415   2.357   1_556  S
Eu405       O407   2.358   1_556  S
Eu405       O406   2.353       .  S
Eu405       O413   2.354       .  S
O406       Eu435   2.351       .  S
O406       Eu432   2.340       .  S
O407       Eu433   2.347       .  S
O407       Eu434   2.352   1_554  S
C408        C887   1.501       .  S
C409        C821   1.496       .  S
C410        C546   1.482       .  S
C411        C469   1.471       .  S
H412        O413   0.966       .  S
O413       Eu434   2.359       .  S
O413       Eu432   2.359       .  S
H414        O415   0.966       .  S
O415       Eu433   2.367       .  S
O415       Eu435   2.372   1_554  S
O416        C439   1.288       .  A
O416       Eu432   2.437       .  S
O417        C440   1.293       .  A
O417       Eu433   2.464       .  S
O418        C441   1.296       .  A
O418       Eu434   2.480       .  S
O419        C442   1.298       .  A
O419       Eu435   2.498       .  S
O420        C443   1.295       .  A
O420       Eu435   2.480   1_554  S
O421        C444   1.297       .  A
O421       Eu434   2.492   1_554  S
O422        C445   1.291       .  A
O422       Eu436   2.456       .  S
O423        C446   1.290       .  A
O423       Eu436   2.443       .  S
O424        C445   1.290       .  A
O424       Eu434   2.442       .  S
O425        C446   1.291       .  A
O425       Eu435   2.451       .  S
O426        C441   1.293       .  A
O426       Eu432   2.468       .  S
O427        C444   1.293       .  A
O427       Eu433   2.466       .  S
O428        C443   1.293       .  A
O428       Eu433   2.465       .  S
O429        C442   1.292       .  A
O429       Eu432   2.462       .  S
O430        C439   1.302       .  A
O430       Eu436   2.521       .  S
O431        C440   1.298       .  A
O431       Eu436   2.492   1_554  S
Eu432       O450   2.375       .  S
Eu432       O438   2.342       .  S
Eu433       O437   2.334       .  S
Eu433       O448   2.379       .  S
Eu434       O448   2.360   1_556  S
Eu434       O438   2.348       .  S
Eu435       O437   2.333   1_556  S
Eu435       O450   2.364       .  S
Eu436       O437   2.340   1_556  S
Eu436       O448   2.378   1_556  S
Eu436       O450   2.364       .  S
Eu436       O438   2.342       .  S
C439        C843   1.500       .  S
C440        C876   1.498       .  S
C441        C579   1.495       .  S
C442        C568   1.501       .  S
C443        C623   1.494       .  S
C444        C601   1.499       .  S
C445        C502   1.480       .  S
C446        C513   1.479   1_556  S
H447        O448   0.964       .  S
H449        O450   0.964       .  S
C451        N452   1.372       .  A
C451        N456   1.356       .  A
C451        C953   1.483       .  S
N452        C453   1.372       .  A
C453        N454   1.355       .  A
C453        C656   1.481   1_554  S
N454        C455   1.353       .  A
C455        N456   1.352       .  A
C455        C524   1.478       .  S
C457        N458   1.353       .  A
C457        N462   1.368       .  A
C457        C942   1.471       .  S
N458        C459   1.350       .  A
C459        N460   1.354       .  A
C459        C491   1.481       .  S
N460        C461   1.361       .  A
C461        N462   1.371       .  A
C461        C700   1.497       .  S
C463        N464   1.348       .  A
C463        N468   1.371       .  A
C463        C667   1.478   1_556  S
N464        C465   1.347       .  A
C465        N466   1.356       .  A
C465        C480   1.475       .  S
N466        C467   1.365       .  A
C467        N468   1.376       .  A
C467        C920   1.502       .  S
C469        C470   1.409       .  A
C469        C474   1.403       .  A
C470        C471   1.399       .  A
C470        H483   1.083       .  S
C471        C472   1.399       .  A
C471        H484   1.083       .  S
C472        C473   1.397       .  A
C472        C475   1.429       .  S
C473        C474   1.389       .  A
C473        H485   1.084       .  S
C474        H486   1.083       .  S
C475        C476   1.200       .  T
C476        C477   1.429       .  S
C477        C478   1.402       .  A
C477        C482   1.394       .  A
C478        C479   1.398       .  A
C478        H487   1.084       .  S
C479        C480   1.404       .  A
C479        H488   1.083       .  S
C480        C481   1.409       .  A
C481        C482   1.393       .  A
C481        H489   1.083       .  S
C482        H490   1.084       .  S
C491        C492   1.409       .  A
C491        C496   1.407       .  A
C492        C493   1.396       .  A
C492        H505   1.083       .  S
C493        C494   1.397       .  A
C493        H506   1.084       .  S
C494        C495   1.399       .  A
C494        C497   1.434       .  S
C495        C496   1.397       .  A
C495        H507   1.084       .  S
C496        H508   1.083       .  S
C497        C498   1.202       .  T
C498        C499   1.433       .  S
C499        C500   1.396       .  A
C499        C504   1.400       .  A
C500        C501   1.393       .  A
C500        H509   1.084       .  S
C501        C502   1.409       .  A
C501        H510   1.083       .  S
C502        C503   1.408       .  A
C503        C504   1.399       .  A
C503        H511   1.083       .  S
C504        H512   1.083       .  S
C513        C514   1.408       .  A
C513        C518   1.409       .  A
C514        C515   1.397       .  A
C514        H527   1.083       .  S
C515        C516   1.400       .  A
C515        H528   1.084       .  S
C516        C517   1.397       .  A
C516        C519   1.434       .  S
C517        C518   1.395       .  A
C517        H529   1.084       .  S
C518        H530   1.083       .  S
C519        C520   1.202       .  T
C520        C521   1.432       .  S
C521        C522   1.399       .  A
C521        C526   1.398       .  A
C522        C523   1.395       .  A
C522        H531   1.084       .  S
C523        C524   1.408       .  A
C523        H532   1.083       .  S
C524        C525   1.407       .  A
C525        C526   1.395       .  A
C525        H533   1.083       .  S
C526        H534   1.084       .  S
C535        C536   1.407       .  A
C535        C540   1.408       .  A
C536        C537   1.397       .  A
C536        H549   1.083       .  S
C537        C538   1.400       .  A
C537        H550   1.084       .  S
C538        C539   1.396       .  A
C538        C541   1.434       .  S
C539        C540   1.395       .  A
C539        H551   1.084       .  S
C540        H552   1.083       .  S
C541        C542   1.203       .  T
C542        C543   1.434       .  S
C543        C544   1.400       .  A
C543        C548   1.396       .  A
C544        C545   1.400       .  A
C544        H553   1.084       .  S
C545        C546   1.409       .  A
C545        H554   1.083       .  S
C546        C547   1.407       .  A
C547        C548   1.393       .  A
C547        H555   1.083       .  S
C548        H556   1.084       .  S
C557        C558   1.407       .  A
C557        C562   1.408       .  A
C558        C559   1.404       .  A
C558        H571   1.083       .  S
C559        C560   1.403       .  A
C559        H572   1.083       .  S
C560        C561   1.404       .  A
C560        C563   1.458       .  S
C561        C562   1.407       .  A
C561        H573   1.083       .  S
C562        H574   1.083       .  S
C563        C564   1.217       .  T
C564        C565   1.458       .  S
C565        C566   1.399       .  A
C565        C570   1.406       .  A
C566        C567   1.401       .  A
C566        H575   1.083       .  S
C567        C568   1.412       .  A
C567        H576   1.083       .  S
C568        C569   1.410       .  A
C569        C570   1.410       .  A
C569        H577   1.083       .  S
C570        H578   1.083       .  S
C579        C580   1.409       .  A
C579        C584   1.412       .  A
C580        C581   1.404       .  A
C580        H593   1.083       .  S
C581        C582   1.403       .  A
C581        H594   1.083       .  S
C582        C583   1.400       .  A
C582        C585   1.452       .  S
C583        C584   1.402       .  A
C583        H595   1.083       .  S
C584        H596   1.083       .  S
C585        C586   1.213       .  T
C586        C587   1.451       .  S
C587        C588   1.397       .  A
C587        C592   1.407       .  A
C588        C589   1.395       .  A
C588        H597   1.084       .  S
C589        C590   1.408       .  A
C589        H598   1.083       .  S
C590        C591   1.407       .  A
C591        C592   1.411       .  A
C591        H599   1.083       .  S
C592        H600   1.083       .  S
C601        C602   1.412       .  A
C601        C606   1.410       .  A
C602        C603   1.404       .  A
C602        H615   1.083       .  S
C603        C604   1.401       .  A
C603        H616   1.083       .  S
C604        C605   1.403       .  A
C604        C607   1.454       .  S
C605        C606   1.405       .  A
C605        H617   1.083       .  S
C606        H618   1.083       .  S
C607        C608   1.215       .  T
C608        C609   1.454       .  S
C609        C610   1.398       .  A
C609        C614   1.405       .  A
C610        C611   1.399       .  A
C610        H619   1.084       .  S
C611        C612   1.412       .  A
C611        H620   1.083       .  S
C612        C613   1.408       .  A
C613        C614   1.409       .  A
C613        H621   1.083       .  S
C614        H622   1.083       .  S
C623        C624   1.410       .  A
C623        C628   1.410       .  A
C624        C625   1.400       .  A
C624        H637   1.083       .  S
C625        C626   1.399       .  A
C625        H638   1.083       .  S
C626        C627   1.404       .  A
C626        C629   1.452       .  S
C627        C628   1.406       .  A
C627        H639   1.083       .  S
C628        H640   1.083       .  S
C629        C630   1.213       .  T
C630        C631   1.452       .  S
C631        C632   1.402       .  A
C631        C636   1.403       .  A
C632        C633   1.402       .  A
C632        H641   1.083       .  S
C633        C634   1.406       .  A
C633        H642   1.083       .  S
C634        C635   1.407       .  A
C635        C636   1.405       .  A
C635        H643   1.083       .  S
C636        H644   1.083       .  S
C645        C646   1.411       .  A
C645        C650   1.412       .  A
C646        C647   1.403       .  A
C646        H659   1.083       .  S
C647        C648   1.401       .  A
C647        H660   1.083       .  S
C648        C649   1.405       .  A
C648        C651   1.458       .  S
C649        C650   1.409       .  A
C649        H661   1.083       .  S
C650        H662   1.083       .  S
C651        C652   1.217       .  T
C652        C653   1.458       .  S
C653        C654   1.402   1_556  A
C653        C658   1.405       .  A
C654        C655   1.403       .  A
C654        H663   1.083       .  S
C655        C656   1.405   1_554  A
C655        H664   1.083       .  S
C656        C657   1.407       .  A
C657        C658   1.408       .  A
C657        H665   1.083       .  S
C658        H666   1.083       .  S
C667        C668   1.407   1_554  A
C667        C672   1.407       .  A
C668        C669   1.403       .  A
C668        H681   1.083       .  S
C669        C670   1.402   1_556  A
C669        H682   1.083       .  S
C670        C671   1.405       .  A
C670        C673   1.458       .  S
C671        C672   1.407       .  A
C671        H683   1.083       .  S
C672        H684   1.083       .  S
C673        C674   1.217       .  T
C674        C675   1.459       .  S
C675        C676   1.401       .  A
C675        C680   1.405       .  A
C676        C677   1.404       .  A
C676        H685   1.083       .  S
C677        C678   1.412       .  A
C677        H686   1.083       .  S
C678        C679   1.410   1_554  A
C679        C680   1.408   1_556  A
C679        H687   1.083       .  S
C680        H688   1.083   1_554  S
C689        C690   1.411       .  A
C689        C694   1.412       .  A
C690        C691   1.406       .  A
C690        H703   1.083       .  S
C691        C692   1.402       .  A
C691        H704   1.083       .  S
C692        C693   1.402       .  A
C692        C695   1.456       .  S
C693        C694   1.404       .  A
C693        H705   1.084       .  S
C694        H706   1.083       .  S
C695        C696   1.216       .  T
C696        C697   1.455       .  S
C697        C698   1.397   1_554  A
C697        C702   1.407       .  A
C698        C699   1.396       .  A
C698        H707   1.084       .  S
C699        C700   1.411       .  A
C699        H708   1.083       .  S
C700        C701   1.410   1_556  A
C701        C702   1.412       .  A
C701        H709   1.083       .  S
C702        H710   1.083       .  S
C711        C712   1.409       .  A
C711        C716   1.410       .  A
C712        C713   1.404       .  A
C712        H725   1.083       .  S
C713        C714   1.402       .  A
C713        H726   1.083       .  S
C714        C715   1.401       .  A
C714        C717   1.453       .  S
C715        C716   1.402       .  A
C715        H727   1.083       .  S
C716        H728   1.083       .  S
C717        C718   1.214       .  T
C718        C719   1.454       .  S
C719        C720   1.406       .  A
C719        C724   1.399       .  A
C720        C721   1.410       .  A
C720        H729   1.083       .  S
C721        C722   1.407       .  A
C721        H730   1.083       .  S
C722        C723   1.410       .  A
C723        C724   1.399       .  A
C723        H731   1.083       .  S
C724        H732   1.084       .  S
C733        C734   1.408       .  A
C733        C738   1.407       .  A
C734        C735   1.394       .  A
C734        H747   1.083       .  S
C735        C736   1.397       .  A
C735        H748   1.084       .  S
C736        C737   1.399       .  A
C736        C739   1.431       .  S
C737        C738   1.397       .  A
C737        H749   1.084       .  S
C738        H750   1.083       .  S
C739        C740   1.200       .  T
C740        C741   1.429       .  S
C741        C742   1.396       .  A
C741        C746   1.399       .  A
C742        C743   1.392       .  A
C742        H751   1.084       .  S
C743        C744   1.409       .  A
C743        H752   1.083       .  S
C744        C745   1.405       .  A
C745        C746   1.397       .  A
C745        H753   1.083       .  S
C746        H754   1.084       .  S
C755        C756   1.409       .  A
C755        C760   1.407       .  A
C756        C757   1.398       .  A
C756        H769   1.083       .  S
C757        C758   1.399       .  A
C757        H770   1.084       .  S
C758        C759   1.400       .  A
C758        C761   1.440       .  S
C759        C760   1.400       .  A
C759        H771   1.083       .  S
C760        H772   1.083       .  S
C761        C762   1.206       .  T
C762        C763   1.440       .  S
C763        C764   1.399       .  A
C763        C768   1.400       .  A
C764        C765   1.398       .  A
C764        H773   1.083       .  S
C765        C766   1.407       .  A
C765        H774   1.083       .  S
C766        C767   1.408       .  A
C767        C768   1.398       .  A
C767        H775   1.083       .  S
C768        H776   1.084       .  S
C777        C778   1.408       .  A
C777        C782   1.406       .  A
C778        C779   1.396       .  A
C778        H791   1.083       .  S
C779        C780   1.397       .  A
C779        H792   1.083       .  S
C780        C781   1.397       .  A
C780        C783   1.428       .  S
C781        C782   1.391       .  A
C781        H793   1.084       .  S
C782        H794   1.083       .  S
C783        C784   1.199       .  T
C784        C785   1.428       .  S
C785        C786   1.399       .  A
C785        C790   1.395       .  A
C786        C787   1.394       .  A
C786        H795   1.084       .  S
C787        C788   1.403       .  A
C787        H796   1.083       .  S
C788        C789   1.410       .  A
C789        C790   1.394       .  A
C789        H797   1.083       .  S
C790        H798   1.084       .  S
C799        C800   1.409       .  A
C799        C804   1.408       .  A
C800        C801   1.395       .  A
C800        H813   1.083       .  S
C801        C802   1.398       .  A
C801        H814   1.084       .  S
C802        C803   1.398       .  A
C802        C805   1.431       .  S
C803        C804   1.394       .  A
C803        H815   1.084       .  S
C804        H816   1.083       .  S
C805        C806   1.200       .  T
C806        C807   1.429       .  S
C807        C808   1.399       .  A
C807        C812   1.397       .  A
C808        C809   1.396       .  A
C808        H817   1.084       .  S
C809        C810   1.407       .  A
C809        H818   1.083       .  S
C810        C811   1.407       .  A
C811        C812   1.392       .  A
C811        H819   1.083       .  S
C812        H820   1.084       .  S
C821        C822   1.409       .  A
C821        C826   1.411       .  A
C822        C823   1.403       .  A
C822        H835   1.083       .  S
C823        C824   1.402       .  A
C823        H836   1.083       .  S
C824        C825   1.402       .  A
C824        C827   1.454       .  S
C825        C826   1.405       .  A
C825        H837   1.083       .  S
C826        H838   1.083       .  S
C827        C828   1.215       .  T
C828        C829   1.454       .  S
C829        C830   1.408       .  A
C829        C834   1.397       .  A
C830        C831   1.413       .  A
C830        H839   1.083       .  S
C831        C832   1.408       .  A
C831        H840   1.083       .  S
C832        C833   1.409       .  A
C833        C834   1.396       .  A
C833        H841   1.083       .  S
C834        H842   1.084       .  S
C843        C844   1.414       .  A
C843        C848   1.409       .  A
C844        C845   1.399       .  A
C844        H857   1.083       .  S
C845        C846   1.397       .  A
C845        H858   1.084       .  S
C846        C847   1.407       .  A
C846        C849   1.454       .  S
C847        C848   1.410       .  A
C847        H859   1.083       .  S
C848        H860   1.083       .  S
C849        C850   1.214       .  T
C850        C851   1.452       .  S
C851        C852   1.406       .  A
C851        C856   1.399       .  A
C852        C853   1.408       .  A
C852        H861   1.083       .  S
C853        C854   1.405       .  A
C853        H862   1.083       .  S
C854        C855   1.406       .  A
C855        C856   1.398       .  A
C855        H863   1.084       .  S
C856        H864   1.084       .  S
C865        C866   1.405       .  A
C865        C870   1.404       .  A
C866        C867   1.402       .  A
C866        H879   1.083       .  S
C867        C868   1.402       .  A
C867        H880   1.083       .  S
C868        C869   1.404       .  A
C868        C871   1.452       .  S
C869        C870   1.405       .  A
C869        H881   1.083       .  S
C870        H882   1.083       .  S
C871        C872   1.214       .  T
C872        C873   1.453       .  S
C873        C874   1.404       .  A
C873        C878   1.399       .  A
C874        C875   1.407       .  A
C874        H883   1.083       .  S
C875        C876   1.410       .  A
C875        H884   1.083       .  S
C876        C877   1.412       .  A
C877        C878   1.401       .  A
C877        H885   1.083       .  S
C878        H886   1.084       .  S
C887        C888   1.412       .  A
C887        C892   1.411       .  A
C888        C889   1.409       .  A
C888        H901   1.083       .  S
C889        C890   1.405       .  A
C889        H902   1.083       .  S
C890        C891   1.400       .  A
C890        C893   1.458       .  S
C891        C892   1.403       .  A
C891        H903   1.083       .  S
C892        H904   1.083       .  S
C893        C894   1.217       .  T
C894        C895   1.457       .  S
C895        C896   1.409       .  A
C895        C900   1.398       .  A
C896        C897   1.412       .  A
C896        H905   1.083       .  S
C897        C898   1.408       .  A
C897        H906   1.083       .  S
C898        C899   1.410       .  A
C899        C900   1.398       .  A
C899        H907   1.083       .  S
C900        H908   1.084       .  S
C909        C910   1.411       .  A
C909        C914   1.409       .  A
C910        C911   1.405       .  A
C910        H923   1.083       .  S
C911        C912   1.402       .  A
C911        H924   1.083       .  S
C912        C913   1.403       .  A
C912        C915   1.457       .  S
C913        C914   1.405       .  A
C913        H925   1.083       .  S
C914        H926   1.083       .  S
C915        C916   1.216       .  T
C916        C917   1.457       .  S
C917        C918   1.398   1_554  A
C917        C922   1.407       .  A
C918        C919   1.399       .  A
C918        H927   1.084       .  S
C919        C920   1.412       .  A
C919        H928   1.082       .  S
C920        C921   1.410   1_556  A
C921        C922   1.412       .  A
C921        H929   1.083       .  S
C922        H930   1.083       .  S
C931        C932   1.411       .  A
C931        C936   1.408   1_556  A
C932        C933   1.395   1_556  A
C932        H945   1.083       .  S
C933        C934   1.396       .  A
C933        H946   1.084       .  S
C934        C935   1.403       .  A
C934        C937   1.443       .  S
C935        C936   1.404       .  A
C935        H947   1.083       .  S
C936        H948   1.083       .  S
C937        C938   1.208       .  T
C938        C939   1.444       .  S
C939        C940   1.400   1_554  A
C939        C944   1.402       .  A
C940        C941   1.400       .  A
C940        H949   1.084       .  S
C941        C942   1.405       .  A
C941        H950   1.083       .  S
C942        C943   1.404   1_556  A
C943        C944   1.402       .  A
C943        H951   1.083       .  S
C944        H952   1.083       .  S
C953        C954   1.407       .  A
C953        C958   1.406   1_554  A
C954        C955   1.401       .  A
C954        H967   1.084       .  S
C955        C956   1.401   1_554  A
C955        H968   1.084       .  S
C956        C957   1.406       .  A
C956        C959   1.457       .  S
C957        C958   1.409       .  A
C957        H969   1.083       .  S
C958        H970   1.083       .  S
C959        C960   1.217       .  T
C960        C961   1.458       .  S
C961        C962   1.406       .  A
C961        C966   1.400       .  A
C962        C963   1.410       .  A
C962        H971   1.083       .  S
C963        C964   1.412       .  A
C963        H972   1.083       .  S
C964        C965   1.411       .  A
C965        C966   1.401       .  A
C965        H973   1.083   1_556  S
C966        H974   1.083       .  S
C975        C976   1.408       .  A
C975        C980   1.412       .  A
C976        C977   1.403       .  A
C976        H989   1.083       .  S
C977        C978   1.402       .  A
C977        H990   1.083       .  S
C978        C979   1.401       .  A
C978        C981   1.453       .  S
C979        C980   1.404       .  A
C979        H991   1.083       .  S
C980        H992   1.083       .  S
C981        C982   1.214       .  T
C982        C983   1.453       .  S
C983        C984   1.400   1_554  A
C983        C988   1.406       .  A
C984        C985   1.399       .  A
C984        H993   1.084       .  S
C985        C986   1.407   1_556  A
C985        H994   1.084       .  S
C986        C987   1.406       .  A
C987        C988   1.409       .  A
C987        H995   1.083       .  S
C988        H996   1.083       .  S
C997        C998   1.410       .  A
C997       C1002   1.406       .  A
C998        C999   1.395       .  A
C998       H1011   1.083       .  S
C999       C1000   1.397       .  A
C999       H1012   1.084       .  S
C1000      C1001   1.401       .  A
C1000      C1003   1.436       .  S
C1001      C1002   1.399       .  A
C1001      H1013   1.083       .  S
C1002      H1014   1.083       .  S
C1003      C1004   1.204       .  T
C1004      C1005   1.436       .  S
C1005      C1006   1.398       .  A
C1005      C1010   1.399       .  A
C1006      C1007   1.396       .  A
C1006      H1015   1.084       .  S
C1007      C1008   1.407       .  A
C1007      H1016   1.083       .  S
C1008      C1009   1.408       .  A
C1009      C1010   1.397       .  A
C1009      H1017   1.083       .  S
C1010      H1018   1.084       .  S
C1019      C1020   1.406       .  A
C1019      C1024   1.406       .  A
C1020      C1021   1.395       .  A
C1020      H1033   1.083       .  S
C1021      C1022   1.399       .  A
C1021      H1034   1.084       .  S
C1022      C1023   1.396       .  A
C1022      C1025   1.428       .  S
C1023      C1024   1.393       .  A
C1023      H1035   1.084       .  S
C1024      H1036   1.083       .  S
C1025      C1026   1.199       .  T
C1026      C1027   1.428       .  S
C1027      C1028   1.400       .  A
C1027      C1032   1.395       .  A
C1028      C1029   1.397       .  A
C1028      H1037   1.084       .  S
C1029      C1030   1.406       .  A
C1029      H1038   1.083       .  S
C1030      C1031   1.407       .  A
C1031      C1032   1.391       .  A
C1031      H1039   1.083       .  S
C1032      H1040   1.084       .  S
C1041      C1042   1.409       .  A
C1041      C1046   1.407       .  A
C1042      C1043   1.398       .  A
C1042      H1055   1.083       .  S
C1043      C1044   1.398       .  A
C1043      H1056   1.083       .  S
C1044      C1045   1.398       .  A
C1044      C1047   1.433       .  S
C1045      C1046   1.394       .  A
C1045      H1057   1.084       .  S
C1046      H1058   1.083       .  S
C1047      C1048   1.201       .  T
C1048      C1049   1.431       .  S
C1049      C1050   1.399       .  A
C1049      C1054   1.397       .  A
C1050      C1051   1.395       .  A
C1050      H1059   1.084       .  S
C1051      C1052   1.407       .  A
C1051      H1060   1.083       .  S
C1052      C1053   1.407       .  A
C1053      C1054   1.395       .  A
C1053      H1061   1.083       .  S
C1054      H1062   1.084       .  S
C1063      C1064   1.409       .  A
C1063      C1068   1.406       .  A
C1064      C1065   1.399       .  A
C1064      H1077   1.083       .  S
C1065      C1066   1.399       .  A
C1065      H1078   1.083       .  S
C1066      C1067   1.397       .  A
C1066      C1069   1.432       .  S
C1067      C1068   1.391       .  A
C1067      H1079   1.084       .  S
C1068      H1080   1.083       .  S
C1069      C1070   1.201       .  T
C1070      C1071   1.431       .  S
C1071      C1072   1.400       .  A
C1071      C1076   1.396       .  A
C1072      C1073   1.396       .  A
C1072      H1081   1.084       .  S
C1073      C1074   1.405       .  A
C1073      H1082   1.083       .  S
C1074      C1075   1.410       .  A
C1075      C1076   1.394       .  A
C1075      H1083   1.083       .  S
C1076      H1084   1.084       .  S
C1085      C1086   1.411       .  A
C1085      C1090   1.413       .  A
C1086      C1087   1.409       .  A
C1086      H1099   1.083       .  S
C1087      C1088   1.405       .  A
C1087      H1100   1.083       .  S
C1088      C1089   1.402       .  A
C1088      C1091   1.462       .  S
C1089      C1090   1.407       .  A
C1089      H1101   1.083       .  S
C1090      H1102   1.083       .  S
C1091      C1092   1.219       .  T
C1092      C1093   1.461       .  S
C1093      C1094   1.403       .  A
C1093      C1098   1.405       .  A
C1094      C1095   1.405       .  A
C1094      H1103   1.083   1_565  S
C1095      C1096   1.407       .  A
C1095      H1104   1.083   1_565  S
C1096      C1097   1.407       .  A
C1097      C1098   1.408       .  A
C1097      H1105   1.083       .  S
C1098      H1106   1.083       .  S
C1107      C1108   1.409       .  A
C1107      C1112   1.412   1_565  A
C1108      C1109   1.411       .  A
C1108      H1121   1.083       .  S
C1109      C1110   1.407       .  A
C1109      H1122   1.083       .  S
C1110      C1111   1.395   1_565  A
C1110      C1113   1.450       .  S
C1111      C1112   1.394       .  A
C1111      H1123   1.084       .  S
C1112      H1124   1.083       .  S
C1113      C1114   1.212       .  T
C1114      C1115   1.451       .  S
C1115      C1116   1.401       .  A
C1115      C1120   1.401       .  A
C1116      C1117   1.402       .  A
C1116      H1125   1.083       .  S
C1117      C1118   1.410       .  A
C1117      H1126   1.083       .  S
C1118      C1119   1.411       .  A
C1119      C1120   1.404       .  A
C1119      H1127   1.083       .  S
C1120      H1128   1.083       .  S
C1129      C1130   1.407       .  A
C1129      C1134   1.406       .  A
C1130      C1131   1.399       .  A
C1130      H1143   1.084       .  S
C1131      C1132   1.399       .  A
C1131      H1144   1.084       .  S
C1132      C1133   1.407   1_565  A
C1132      C1135   1.455       .  S
C1133      C1134   1.410   1_545  A
C1133      H1145   1.083       .  S
C1134      H1146   1.083   1_565  S
C1135      C1136   1.215       .  T
C1136      C1137   1.455       .  S
C1137      C1138   1.400       .  A
C1137      C1142   1.404       .  A
C1138      C1139   1.402       .  A
C1138      H1147   1.083       .  S
C1139      C1140   1.411       .  A
C1139      H1148   1.083       .  S
C1140      C1141   1.409       .  A
C1141      C1142   1.406       .  A
C1141      H1149   1.083       .  S
C1142      H1150   1.083       .  S
C1151      C1152   1.408       .  A
C1151      C1156   1.409       .  A
C1152      C1153   1.404       .  A
C1152      H1165   1.083       .  S
C1153      C1154   1.403       .  A
C1153      H1166   1.083       .  S
C1154      C1155   1.400       .  A
C1154      C1157   1.449       .  S
C1155      C1156   1.399       .  A
C1155      H1167   1.083       .  S
C1156      H1168   1.083       .  S
C1157      C1158   1.212       .  T
C1158      C1159   1.450       .  S
C1159      C1160   1.402       .  A
C1159      C1164   1.401       .  A
C1160      C1161   1.404       .  A
C1160      H1169   1.083       .  S
C1161      C1162   1.406       .  A
C1161      H1170   1.083       .  S
C1162      C1163   1.407       .  A
C1163      C1164   1.402       .  A
C1163      H1171   1.083       .  S
C1164      H1172   1.084       .  S
C1173      C1174   1.405       .  A
C1173      C1178   1.405       .  A
C1174      C1175   1.406       .  A
C1174      H1187   1.083       .  S
C1175      C1176   1.404       .  A
C1175      H1188   1.083       .  S
C1176      C1177   1.401       .  A
C1176      C1179   1.450       .  S
C1177      C1178   1.399       .  A
C1177      H1189   1.084       .  S
C1178      H1190   1.084       .  S
C1179      C1180   1.212       .  T
C1180      C1181   1.450       .  S
C1181      C1182   1.404       .  A
C1181      C1186   1.398       .  A
C1182      C1183   1.407       .  A
C1182      H1191   1.083       .  S
C1183      C1184   1.409       .  A
C1183      H1192   1.083       .  S
C1184      C1185   1.410       .  A
C1185      C1186   1.398       .  A
C1185      H1193   1.083       .  S
C1186      H1194   1.084       .  S
C1195      C1196   1.409       .  A
C1195      C1200   1.407       .  A
C1196      C1197   1.397       .  A
C1196      H1209   1.083       .  S
C1197      C1198   1.398       .  A
C1197      H1210   1.084       .  S
C1198      C1199   1.409       .  A
C1198      C1201   1.457       .  S
C1199      C1200   1.413       .  A
C1199      H1211   1.083       .  S
C1200      H1212   1.083       .  S
C1201      C1202   1.217       .  T
C1202      C1203   1.458       .  S
C1203      C1204   1.406       .  A
C1203      C1208   1.399       .  A
C1204      C1205   1.410       .  A
C1204      H1213   1.083       .  S
C1205      C1206   1.411       .  A
C1205      H1214   1.083       .  S
C1206      C1207   1.412       .  A
C1207      C1208   1.402       .  A
C1207      H1215   1.083       .  S
C1208      H1216   1.083       .  S
C1217      C1218   1.410       .  A
C1217      C1222   1.408       .  A
C1218      C1219   1.401       .  A
C1218      H1231   1.083       .  S
C1219      C1220   1.400       .  A
C1219      H1232   1.084       .  S
C1220      C1221   1.401       .  A
C1220      C1223   1.446       .  S
C1221      C1222   1.401       .  A
C1221      H1233   1.083       .  S
C1222      H1234   1.083       .  S
C1223      C1224   1.210       .  T
C1224      C1225   1.446       .  S
C1225      C1226   1.397       .  A
C1225      C1230   1.405       .  A
C1226      C1227   1.394       .  A
C1226      H1235   1.084       .  S
C1227      C1228   1.409       .  A
C1227      H1236   1.083       .  S
C1228      C1229   1.406       .  A
C1229      C1230   1.407       .  A
C1229      H1237   1.083       .  S
C1230      H1238   1.083       .  S
C1239      C1240   1.406       .  A
C1239      C1244   1.408       .  A
C1240      C1241   1.392       .  A
C1240      H1253   1.083   1_545  S
C1241      C1242   1.396       .  A
C1241      H1254   1.084       .  S
C1242      C1243   1.401       .  A
C1242      C1245   1.434       .  S
C1243      C1244   1.401       .  A
C1243      H1255   1.083       .  S
C1244      H1256   1.083       .  S
C1245      C1246   1.203       .  T
C1246      C1247   1.434       .  S
C1247      C1248   1.396       .  A
C1247      C1252   1.401       .  A
C1248      C1249   1.394       .  A
C1248      H1257   1.084       .  S
C1249      C1250   1.410       .  A
C1249      H1258   1.083       .  S
C1250      C1251   1.405       .  A
C1251      C1252   1.399       .  A
C1251      H1259   1.083       .  S
C1252      H1260   1.084       .  S
C1261      C1262   1.408       .  A
C1261      C1266   1.409       .  A
C1262      C1263   1.392       .  A
C1262      H1275   1.083       .  S
C1263      C1264   1.396       .  A
C1263      H1276   1.084       .  S
C1264      C1265   1.399       .  A
C1264      C1267   1.433       .  S
C1265      C1266   1.399       .  A
C1265      H1277   1.083       .  S
C1266      H1278   1.083       .  S
C1267      C1268   1.202       .  T
C1268      C1269   1.432       .  S
C1269      C1270   1.397       .  A
C1269      C1274   1.399       .  A
C1270      C1271   1.394       .  A
C1270      H1279   1.084       .  S
C1271      C1272   1.408       .  A
C1271      H1280   1.083       .  S
C1272      C1273   1.407       .  A
C1273      C1274   1.396       .  A
C1273      H1281   1.083       .  S
C1274      H1282   1.084       .  S
C1283      C1284   1.409       .  A
C1283      C1288   1.408       .  A
C1284      C1285   1.396       .  A
C1284      H1297   1.083       .  S
C1285      C1286   1.397       .  A
C1285      H1298   1.084       .  S
C1286      C1287   1.399       .  A
C1286      C1289   1.434       .  S
C1287      C1288   1.397       .  A
C1287      H1299   1.084       .  S
C1288      H1300   1.083       .  S
C1289      C1290   1.203       .  T
C1290      C1291   1.434       .  S
C1291      C1292   1.398       .  A
C1291      C1296   1.399       .  A
C1292      C1293   1.394       .  A
C1292      H1301   1.084       .  S
C1293      C1294   1.407       .  A
C1293      H1302   1.083       .  S
C1294      C1295   1.406       .  A
C1295      C1296   1.397       .  A
C1295      H1303   1.083       .  S
C1296      H1304   1.083       .  S
C1305      C1306   1.412   1_565  A
C1305      C1310   1.408       .  A
C1306      C1307   1.394   1_545  A
C1306      H1319   1.083       .  S
C1307      C1308   1.395       .  A
C1307      H1320   1.084   1_565  S
C1308      C1309   1.409       .  A
C1308      C1311   1.454       .  S
C1309      C1310   1.414       .  A
C1309      H1321   1.083       .  S
C1310      H1322   1.083       .  S
C1311      C1312   1.215       .  T
C1312      C1313   1.454       .  S
C1313      C1314   1.405       .  A
C1313      C1318   1.399       .  A
C1314      C1315   1.407       .  A
C1314      H1323   1.083       .  S
C1315      C1316   1.409       .  A
C1315      H1324   1.083       .  S
C1316      C1317   1.411       .  A
C1317      C1318   1.400       .  A
C1317      H1325   1.083       .  S
C1318      H1326   1.083       .  S
C1327      C1328   1.408       .  A
C1327      C1332   1.406       .  A
C1328      C1329   1.393       .  A
C1328      H1341   1.083       .  S
C1329      C1330   1.397       .  A
C1329      H1342   1.084       .  S
C1330      C1331   1.399       .  A
C1330      C1333   1.428       .  S
C1331      C1332   1.396       .  A
C1331      H1343   1.084       .  S
C1332      H1344   1.083       .  S
C1333      C1334   1.200       .  T
C1334      C1335   1.432       .  S
C1335      C1336   1.395       .  A
C1335      C1340   1.402       .  A
C1336      C1337   1.393       .  A
C1336      H1345   1.084       .  S
C1337      C1338   1.410       .  A
C1337      H1346   1.083       .  S
C1338      C1339   1.404       .  A
C1339      C1340   1.397       .  A
C1339      H1347   1.083       .  S
C1340      H1348   1.084       .  S
C1349      C1350   1.411       .  A
C1349      C1354   1.408       .  A
C1350      C1351   1.393       .  A
C1350      H1363   1.083       .  S
C1351      C1352   1.395       .  A
C1351      H1364   1.084       .  S
C1352      C1353   1.406       .  A
C1352      C1355   1.446       .  S
C1353      C1354   1.409       .  A
C1353      H1365   1.083       .  S
C1354      H1366   1.083       .  S
C1355      C1356   1.210       .  T
C1356      C1357   1.447       .  S
C1357      C1358   1.402       .  A
C1357      C1362   1.400       .  A
C1358      C1359   1.401       .  A
C1358      H1367   1.083       .  S
C1359      C1360   1.407       .  A
C1359      H1368   1.083       .  S
C1360      C1361   1.411       .  A
C1361      C1362   1.401       .  A
C1361      H1369   1.083       .  S
C1362      H1370   1.083       .  S
C1371      C1372   1.410       .  A
C1371      C1376   1.413       .  A
C1372      C1373   1.411       .  A
C1372      H1385   1.083       .  S
C1373      C1374   1.407       .  A
C1373      H1386   1.083       .  S
C1374      C1375   1.399       .  A
C1374      C1377   1.458       .  S
C1375      C1376   1.401       .  A
C1375      H1387   1.084       .  S
C1376      H1388   1.083       .  S
C1377      C1378   1.217       .  T
C1378      C1379   1.458       .  S
C1379      C1380   1.405       .  A
C1379      C1384   1.403       .  A
C1380      C1381   1.407       .  A
C1380      H1389   1.083       .  S
C1381      C1382   1.405       .  A
C1381      H1390   1.083       .  S
C1382      C1383   1.408       .  A
C1383      C1384   1.403       .  A
C1383      H1391   1.084       .  S
C1384      H1392   1.084       .  S
C1393      C1394   1.411       .  A
C1393      C1398   1.409       .  A
C1394      C1395   1.404       .  A
C1394      H1407   1.083       .  S
C1395      C1396   1.402       .  A
C1395      H1408   1.083       .  S
C1396      C1397   1.403       .  A
C1396      C1399   1.455       .  S
C1397      C1398   1.404       .  A
C1397      H1409   1.083       .  S
C1398      H1410   1.083       .  S
C1399      C1400   1.215       .  T
C1400      C1401   1.455       .  S
C1401      C1402   1.402       .  A
C1401      C1406   1.404       .  A
C1402      C1403   1.403       .  A
C1402      H1411   1.083       .  S
C1403      C1404   1.407       .  A
C1403      H1412   1.083       .  S
C1404      C1405   1.406       .  A
C1405      C1406   1.406       .  A
C1405      H1413   1.083       .  S
C1406      H1414   1.083       .  S
C1415      C1416   1.408       .  A
C1415      C1420   1.407       .  A
C1416      C1417   1.412       .  A
C1416      H1429   1.083       .  S
C1417      C1418   1.408       .  A
C1417      H1430   1.083       .  S
C1418      C1419   1.398       .  A
C1418      C1421   1.456       .  S
C1419      C1420   1.397       .  A
C1419      H1431   1.084       .  S
C1420      H1432   1.083       .  S
C1421      C1422   1.216       .  T
C1422      C1423   1.457       .  S
C1423      C1424   1.401       .  A
C1423      C1428   1.404       .  A
C1424      C1425   1.405       .  A
C1424      H1433   1.083       .  S
C1425      C1426   1.412       .  A
C1425      H1434   1.083       .  S
C1426      C1427   1.410       .  A
C1427      C1428   1.406       .  A
C1427      H1435   1.083       .  S
C1428      H1436   1.083       .  S
C1437      C1438   1.406       .  A
C1437      C1442   1.406       .  A
C1438      C1439   1.402       .  A
C1438      H1451   1.084   1_565  S
C1439      C1440   1.402       .  A
C1439      H1452   1.083   1_565  S
C1440      C1441   1.404       .  A
C1440      C1443   1.456       .  S
C1441      C1442   1.406       .  A
C1441      H1453   1.083       .  S
C1442      H1454   1.083       .  S
C1443      C1444   1.216       .  T
C1444      C1445   1.456       .  S
C1445      C1446   1.403       .  A
C1445      C1450   1.402       .  A
C1446      C1447   1.405       .  A
C1446      H1455   1.083       .  S
C1447      C1448   1.410       .  A
C1447      H1456   1.083       .  S
C1448      C1449   1.411       .  A
C1449      C1450   1.405       .  A
C1449      H1457   1.083       .  S
C1450      H1458   1.083       .  S
C1459      C1460   1.410       .  A
C1459      C1464   1.411       .  A
C1460      C1461   1.402       .  A
C1460      H1473   1.083       .  S
C1461      C1462   1.400       .  A
C1461      H1474   1.083       .  S
C1462      C1463   1.403       .  A
C1462      C1465   1.452       .  S
C1463      C1464   1.404       .  A
C1463      H1475   1.083       .  S
C1464      H1476   1.083       .  S
C1465      C1466   1.214       .  T
C1466      C1467   1.452       .  S
C1467      C1468   1.408       .  A
C1467      C1472   1.394       .  A
C1468      C1469   1.412       .  A
C1468      H1477   1.083   1_565  S
C1469      C1470   1.408       .  A
C1469      H1478   1.082       .  S
C1470      C1471   1.415       .  A
C1471      C1472   1.394       .  A
C1471      H1479   1.083       .  S
C1472      H1480   1.084       .  S
C1481      C1482   1.409       .  A
C1481      C1486   1.411       .  A
C1482      C1483   1.403       .  A
C1482      H1495   1.083       .  S
C1483      C1484   1.402       .  A
C1483      H1496   1.083       .  S
C1484      C1485   1.404       .  A
C1484      C1487   1.457       .  S
C1485      C1486   1.407       .  A
C1485      H1497   1.083       .  S
C1486      H1498   1.083       .  S
C1487      C1488   1.217       .  T
C1488      C1489   1.457       .  S
C1489      C1490   1.399       .  A
C1489      C1494   1.407       .  A
C1490      C1491   1.400       .  A
C1490      H1499   1.084       .  S
C1491      C1492   1.411       .  A
C1491      H1500   1.083       .  S
C1492      C1493   1.409       .  A
C1493      C1494   1.412       .  A
C1493      H1501   1.083       .  S
C1494      H1502   1.083       .  S
C1503      C1504   1.406       .  A
C1503      C1508   1.408       .  A
C1504      C1505   1.403       .  A
C1504      H1517   1.083       .  S
C1505      C1506   1.402       .  A
C1505      H1518   1.083       .  S
C1506      C1507   1.406       .  A
C1506      C1509   1.460       .  S
C1507      C1508   1.410       .  A
C1507      H1519   1.083       .  S
C1508      H1520   1.083       .  S
C1509      C1510   1.219       .  T
C1510      C1511   1.461       .  S
C1511      C1512   1.400       .  A
C1511      C1516   1.407       .  A
C1512      C1513   1.402       .  A
C1512      H1521   1.084       .  S
C1513      C1514   1.412       .  A
C1513      H1522   1.083       .  S
C1514      C1515   1.411       .  A
C1515      C1516   1.412       .  A
C1515      H1523   1.083       .  S
C1516      H1524   1.083       .  S
C1525      C1526   1.405       .  A
C1525      C1530   1.409       .  A
C1526      C1527   1.398       .  A
C1526      H1539   1.083       .  S
C1527      C1528   1.400       .  A
C1527      H1540   1.083       .  S
C1528      C1529   1.395       .  A
C1528      C1531   1.430       .  S
C1529      C1530   1.391       .  A
C1529      H1541   1.084       .  S
C1530      H1542   1.083       .  S
C1531      C1532   1.200       .  T
C1532      C1533   1.430       .  S
C1533      C1534   1.399       .  A
C1533      C1538   1.396       .  A
C1534      C1535   1.397       .  A
C1534      H1543   1.084       .  S
C1535      C1536   1.407       .  A
C1535      H1544   1.083       .  S
C1536      C1537   1.407       .  A
C1537      C1538   1.392       .  A
C1537      H1545   1.083       .  S
C1538      H1546   1.084       .  S
C1547      C1548   1.408       .  A
C1547      C1552   1.407       .  A
C1548      C1549   1.396       .  A
C1548      H1561   1.083       .  S
C1549      C1550   1.398       .  A
C1549      H1562   1.084       .  S
C1550      C1551   1.397       .  A
C1550      C1553   1.430       .  S
C1551      C1552   1.394       .  A
C1551      H1563   1.084       .  S
C1552      H1564   1.083       .  S
C1553      C1554   1.200       .  T
C1554      C1555   1.431       .  S
C1555      C1556   1.398       .  A
C1555      C1560   1.397       .  A
C1556      C1557   1.396       .  A
C1556      H1565   1.084       .  S
C1557      C1558   1.409       .  A
C1557      H1566   1.083       .  S
C1558      C1559   1.408       .  A
C1559      C1560   1.395       .  A
C1559      H1567   1.083       .  S
C1560      H1568   1.084       .  S
C1569      C1570   1.409       .  A
C1569      C1574   1.405       .  A
C1570      C1571   1.396       .  A
C1570      H1583   1.083       .  S
C1571      C1572   1.397       .  A
C1571      H1584   1.084       .  S
C1572      C1573   1.399       .  A
C1572      C1575   1.431       .  S
C1573      C1574   1.395       .  A
C1573      H1585   1.084       .  S
C1574      H1586   1.083       .  S
C1575      C1576   1.201       .  T
C1576      C1577   1.432       .  S
C1577      C1578   1.400       .  A
C1577      C1582   1.397       .  A
C1578      C1579   1.393       .  A
C1578      H1587   1.084       .  S
C1579      C1580   1.403       .  A
C1579      H1588   1.083       .  S
C1580      C1581   1.409       .  A
C1581      C1582   1.397       .  A
C1581      H1589   1.083       .  S
C1582      H1590   1.083       .  S
C1591      C1592   1.406       .  A
C1591      C1596   1.407       .  A
C1592      C1593   1.395       .  A
C1592      H1605   1.083       .  S
C1593      C1594   1.397       .  A
C1593      H1606   1.084       .  S
C1594      C1595   1.400       .  A
C1594      C1597   1.433       .  S
C1595      C1596   1.398       .  A
C1595      H1607   1.084       .  S
C1596      H1608   1.083       .  S
C1597      C1598   1.202       .  T
C1598      C1599   1.433       .  S
C1599      C1600   1.395       .  A
C1599      C1604   1.401       .  A
C1600      C1601   1.392       .  A
C1600      H1609   1.084       .  S
C1601      C1602   1.410       .  A
C1601      H1610   1.083       .  S
C1602      C1603   1.407       .  A
C1603      C1604   1.400       .  A
C1603      H1611   1.083       .  S
C1604      H1612   1.083       .  S
C1613      C1614   1.411       .  A
C1613      C1618   1.410       .  A
C1614      C1615   1.399       .  A
C1614      H1627   1.083       .  S
C1615      C1616   1.399       .  A
C1615      H1628   1.084       .  S
C1616      C1617   1.405       .  A
C1616      C1619   1.454       .  S
C1617      C1618   1.408       .  A
C1617      H1629   1.083       .  S
C1618      H1630   1.083       .  S
C1619      C1620   1.215       .  T
C1620      C1621   1.454       .  S
C1621      C1622   1.407       .  A
C1621      C1626   1.398       .  A
C1622      C1623   1.411       .  A
C1622      H1631   1.083       .  S
C1623      C1624   1.407       .  A
C1623      H1632   1.083       .  S
C1624      C1625   1.408       .  A
C1625      C1626   1.397       .  A
C1625      H1633   1.084   1_655  S
C1626      H1634   1.084   1_655  S
C1635      C1636   1.406       .  A
C1635      C1640   1.406       .  A
C1636      C1637   1.409       .  A
C1636      H1649   1.083       .  S
C1637      C1638   1.406       .  A
C1637      H1650   1.083       .  S
C1638      C1639   1.401       .  A
C1638      C1641   1.457       .  S
C1639      C1640   1.402       .  A
C1639      H1651   1.083       .  S
C1640      H1652   1.083       .  S
C1641      C1642   1.217       .  T
C1642      C1643   1.458       .  S
C1643      C1644   1.398       .  A
C1643      C1648   1.407       .  A
C1644      C1645   1.400       .  A
C1644      H1653   1.084       .  S
C1645      C1646   1.413       .  A
C1645      H1654   1.083       .  S
C1646      C1647   1.409       .  A
C1647      C1648   1.411       .  A
C1647      H1655   1.083       .  S
C1648      H1656   1.083       .  S
C1657      C1658   1.408       .  A
C1657      C1662   1.410       .  A
C1658      C1659   1.404       .  A
C1658      H1671   1.083       .  S
C1659      C1660   1.404       .  A
C1659      H1672   1.083       .  S
C1660      C1661   1.398       .  A
C1660      C1663   1.447       .  S
C1661      C1662   1.399       .  A
C1661      H1673   1.083       .  S
C1662      H1674   1.083       .  S
C1663      C1664   1.210       .  T
C1664      C1665   1.446       .  S
C1665      C1666   1.406       .  A
C1665      C1670   1.397       .  A
C1666      C1667   1.409       .  A
C1666      H1675   1.083       .  S
C1667      C1668   1.406       .  A
C1667      H1676   1.083       .  S
C1668      C1669   1.406       .  A
C1669      C1670   1.394       .  A
C1669      H1677   1.084       .  S
C1670      H1678   1.084       .  S
C1679      C1680   1.412       .  A
C1679      C1684   1.409       .  A
C1680      C1681   1.400       .  A
C1680      H1693   1.083       .  S
C1681      C1682   1.399       .  A
C1681      H1694   1.083       .  S
C1682      C1683   1.403       .  A
C1682      C1685   1.450       .  S
C1683      C1684   1.405       .  A
C1683      H1695   1.083       .  S
C1684      H1696   1.083       .  S
C1685      C1686   1.212       .  T
C1686      C1687   1.449       .  S
C1687      C1688   1.398   1_655  A
C1687      C1692   1.406       .  A
C1688      C1689   1.397       .  A
C1688      H1697   1.084       .  S
C1689      C1690   1.405   1_455  A
C1689      H1698   1.083       .  S
C1690      C1691   1.406       .  A
C1691      C1692   1.408       .  A
C1691      H1699   1.083       .  S
C1692      H1700   1.083       .  S
C1701      C1702   1.411       .  A
C1701      C1706   1.407       .  A
C1702      C1703   1.395       .  A
C1702      H1715   1.083       .  S
C1703      C1704   1.397       .  A
C1703      H1716   1.084       .  S
C1704      C1705   1.404       .  A
C1704      C1707   1.445       .  S
C1705      C1706   1.407       .  A
C1705      H1717   1.083   1_655  S
C1706      H1718   1.083       .  S
C1707      C1708   1.210       .  T
C1708      C1709   1.446       .  S
C1709      C1710   1.402       .  A
C1709      C1714   1.399       .  A
C1710      C1711   1.402       .  A
C1710      H1719   1.083       .  S
C1711      C1712   1.407       .  A
C1711      H1720   1.083       .  S
C1712      C1713   1.411       .  A
C1713      C1714   1.400       .  A
C1713      H1721   1.083       .  S
C1714      H1722   1.084       .  S
C1723      C1724   1.406       .  A
C1723      C1728   1.404       .  A
C1724      C1725   1.401   1_655  A
C1724      H1737   1.084   1_655  S
C1725      C1726   1.401   1_455  A
C1725      H1738   1.083       .  S
C1726      C1727   1.403       .  A
C1726      C1729   1.450       .  S
C1727      C1728   1.403       .  A
C1727      H1739   1.083       .  S
C1728      H1740   1.083       .  S
C1729      C1730   1.212       .  T
C1730      C1731   1.451       .  S
C1731      C1732   1.403       .  A
C1731      C1736   1.400       .  A
C1732      C1733   1.404       .  A
C1732      H1741   1.083       .  S
C1733      C1734   1.409       .  A
C1733      H1742   1.083       .  S
C1734      C1735   1.411       .  A
C1735      C1736   1.402       .  A
C1735      H1743   1.083       .  S
C1736      H1744   1.084       .  S
C1745      C1746   1.406       .  A
C1745      C1750   1.406       .  A
C1746      C1747   1.400       .  A
C1746      H1759   1.084       .  S
C1747      C1748   1.400       .  A
C1747      H1760   1.083       .  S
C1748      C1749   1.406       .  A
C1748      C1751   1.455       .  S
C1749      C1750   1.408       .  A
C1749      H1761   1.083       .  S
C1750      H1762   1.083       .  S
C1751      C1752   1.216       .  T
C1752      C1753   1.456       .  S
C1753      C1754   1.398       .  A
C1753      C1758   1.407       .  A
C1754      C1755   1.400       .  A
C1754      H1763   1.083       .  S
C1755      C1756   1.410       .  A
C1755      H1764   1.083       .  S
C1756      C1757   1.411       .  A
C1757      C1758   1.410       .  A
C1757      H1765   1.083       .  S
C1758      H1766   1.083       .  S
C1767      C1768   1.409       .  A
C1767      C1772   1.413       .  A
C1768      C1769   1.412       .  A
C1768      H1781   1.083       .  S
C1769      C1770   1.408       .  A
C1769      H1782   1.083       .  S
C1770      C1771   1.399       .  A
C1770      C1773   1.460       .  S
C1771      C1772   1.400       .  A
C1771      H1783   1.084       .  S
C1772      H1784   1.083       .  S
C1773      C1774   1.218       .  T
C1774      C1775   1.460       .  S
C1775      C1776   1.403       .  A
C1775      C1780   1.403       .  A
C1776      C1777   1.406       .  A
C1776      H1785   1.083       .  S
C1777      C1778   1.411       .  A
C1777      H1786   1.083       .  S
C1778      C1779   1.411       .  A
C1779      C1780   1.406       .  A
C1779      H1787   1.083       .  S
C1780      H1788   1.083       .  S
C1789      C1790   1.405       .  A
C1789      C1794   1.405       .  A
C1790      C1791   1.407       .  A
C1790      H1803   1.083       .  S
C1791      C1792   1.405       .  A
C1791      H1804   1.083       .  S
C1792      C1793   1.401       .  A
C1792      C1795   1.454       .  S
C1793      C1794   1.401       .  A
C1793      H1805   1.083       .  S
C1794      H1806   1.083       .  S
C1795      C1796   1.215       .  T
C1796      C1797   1.455       .  S
C1797      C1798   1.402       .  A
C1797      C1802   1.402       .  A
C1798      C1799   1.404       .  A
C1798      H1807   1.084       .  S
C1799      C1800   1.412       .  A
C1799      H1808   1.083       .  S
C1800      C1801   1.409       .  A
C1801      C1802   1.405       .  A
C1801      H1809   1.083       .  S
C1802      H1810   1.083       .  S
C1811      C1812   1.407       .  A
C1811      C1816   1.408       .  A
C1812      C1813   1.412       .  A
C1812      H1825   1.083       .  S
C1813      C1814   1.408       .  A
C1813      H1826   1.083       .  S
C1814      C1815   1.398       .  A
C1814      C1817   1.456       .  S
C1815      C1816   1.397       .  A
C1815      H1827   1.084       .  S
C1816      H1828   1.084       .  S
C1817      C1818   1.216       .  T
C1818      C1819   1.456       .  S
C1819      C1820   1.400       .  A
C1819      C1824   1.405       .  A
C1820      C1821   1.401       .  A
C1820      H1829   1.083       .  S
C1821      C1822   1.410       .  A
C1821      H1830   1.083       .  S
C1822      C1823   1.412       .  A
C1823      C1824   1.409       .  A
C1823      H1831   1.083       .  S
C1824      H1832   1.083       .  S
C1833      C1834   1.406       .  A
C1833      C1838   1.406       .  A
C1834      C1835   1.405       .  A
C1834      H1847   1.083       .  S
C1835      C1836   1.403       .  A
C1835      H1848   1.083       .  S
C1836      C1837   1.401       .  A
C1836      C1839   1.453       .  S
C1837      C1838   1.401       .  A
C1837      H1849   1.083       .  S
C1838      H1850   1.084       .  S
C1839      C1840   1.214       .  T
C1840      C1841   1.453       .  S
C1841      C1842   1.399       .  A
C1841      C1846   1.405       .  A
C1842      C1843   1.401       .  A
C1842      H1851   1.084       .  S
C1843      C1844   1.412       .  A
C1843      H1852   1.083       .  S
C1844      C1845   1.409       .  A
C1845      C1846   1.407       .  A
C1845      H1853   1.083       .  S
C1846      H1854   1.083       .  S
C1855      C1856   1.409       .  A
C1855      C1860   1.413       .  A
C1856      C1857   1.410       .  A
C1856      H1869   1.083       .  S
C1857      C1858   1.406       .  A
C1857      H1870   1.083       .  S
C1858      C1859   1.400       .  A
C1858      C1861   1.459       .  S
C1859      C1860   1.403       .  A
C1859      H1871   1.084       .  S
C1860      H1872   1.083       .  S
C1861      C1862   1.218       .  T
C1862      C1863   1.458       .  S
C1863      C1864   1.409       .  A
C1863      C1868   1.397       .  A
C1864      C1865   1.414       .  A
C1864      H1873   1.083       .  S
C1865      C1866   1.409       .  A
C1865      H1874   1.083       .  S
C1866      C1867   1.411       .  A
C1867      C1868   1.396       .  A
C1867      H1875   1.083       .  S
C1868      H1876   1.084       .  S
C1877      C1878   1.405       .  A
C1877      C1882   1.406       .  A
C1878      C1879   1.397       .  A
C1878      H1891   1.084       .  S
C1879      C1880   1.398       .  A
C1879      H1892   1.084       .  S
C1880      C1881   1.407       .  A
C1880      C1883   1.451       .  S
C1881      C1882   1.409       .  A
C1881      H1893   1.083       .  S
C1882      H1894   1.083       .  S
C1883      C1884   1.213       .  T
C1884      C1885   1.452       .  S
C1885      C1886   1.399       .  A
C1885      C1890   1.404       .  A
C1886      C1887   1.401       .  A
C1886      H1895   1.083       .  S
C1887      C1888   1.412       .  A
C1887      H1896   1.083       .  S
C1888      C1889   1.409       .  A
C1889      C1890   1.406       .  A
C1889      H1897   1.083       .  S
C1890      H1898   1.083       .  S
C1899      C1900   1.410       .  A
C1899      C1904   1.411       .  A
C1900      C1901   1.406       .  A
C1900      H1913   1.083       .  S
C1901      C1902   1.404       .  A
C1901      H1914   1.083       .  S
C1902      C1903   1.403       .  A
C1902      C1905   1.460       .  S
C1903      C1904   1.407       .  A
C1903      H1915   1.083       .  S
C1904      H1916   1.083       .  S
C1905      C1906   1.218       .  T
C1906      C1907   1.460       .  S
C1907      C1908   1.409       .  A
C1907      C1912   1.399       .  A
C1908      C1909   1.413       .  A
C1908      H1917   1.083       .  S
C1909      C1910   1.408       .  A
C1909      H1918   1.083       .  S
C1910      C1911   1.410       .  A
C1911      C1912   1.400       .  A
C1911      H1919   1.083       .  S
C1912      H1920   1.084       .  S
C1921      C1922   1.410       .  A
C1921      C1926   1.407       .  A
C1922      C1923   1.397       .  A
C1922      H1935   1.083       .  S
C1923      C1924   1.398       .  A
C1923      H1936   1.084       .  S
C1924      C1925   1.399       .  A
C1924      C1927   1.434       .  S
C1925      C1926   1.396       .  A
C1925      H1937   1.084       .  S
C1926      H1938   1.083       .  S
C1927      C1928   1.202       .  T
C1928      C1929   1.432       .  S
C1929      C1930   1.398       .  A
C1929      C1934   1.398       .  A
C1930      C1931   1.395       .  A
C1930      H1939   1.084       .  S
C1931      C1932   1.406       .  A
C1931      H1940   1.083       .  S
C1932      C1933   1.408       .  A
C1933      C1934   1.396       .  A
C1933      H1941   1.083       .  S
C1934      H1942   1.084       .  S
C1943      C1944   1.408       .  A
C1943      C1948   1.408       .  A
C1944      C1945   1.399       .  A
C1944      H1957   1.083       .  S
C1945      C1946   1.400       .  A
C1945      H1958   1.084       .  S
C1946      C1947   1.399       .  A
C1946      C1949   1.438       .  S
C1947      C1948   1.398       .  A
C1947      H1959   1.084       .  S
C1948      H1960   1.083       .  S
C1949      C1950   1.205       .  T
C1950      C1951   1.438       .  S
C1951      C1952   1.399       .  A
C1951      C1956   1.399       .  A
C1952      C1953   1.398       .  A
C1952      H1961   1.084       .  S
C1953      C1954   1.409       .  A
C1953      H1962   1.083       .  S
C1954      C1955   1.407       .  A
C1955      C1956   1.397       .  A
C1955      H1963   1.083       .  S
C1956      H1964   1.083       .  S
C1965      C1966   1.408   1_455  A
C1965      C1970   1.409   1_455  A
C1966      C1967   1.393       .  A
C1966      H1979   1.083   1_655  S
C1967      C1968   1.397       .  A
C1967      H1980   1.084       .  S
C1968      C1969   1.397       .  A
C1968      C1971   1.430       .  S
C1969      C1970   1.397       .  A
C1969      H1981   1.083       .  S
C1970      H1982   1.083   1_655  S
C1971      C1972   1.200       .  T
C1972      C1973   1.428       .  S
C1973      C1974   1.396       .  A
C1973      C1978   1.398       .  A
C1974      C1975   1.395       .  A
C1974      H1983   1.084       .  S
C1975      C1976   1.409       .  A
C1975      H1984   1.083       .  S
C1976      C1977   1.404       .  A
C1977      C1978   1.393       .  A
C1977      H1985   1.083       .  S
C1978      H1986   1.084       .  S
C1987      C1988   1.409       .  A
C1987      C1992   1.412       .  A
C1988      C1989   1.410       .  A
C1988      H2001   1.083       .  S
C1989      C1990   1.406       .  A
C1989      H2002   1.083       .  S
C1990      C1991   1.401       .  A
C1990      C1993   1.459       .  S
C1991      C1992   1.403       .  A
C1991      H2003   1.084       .  S
C1992      H2004   1.083       .  S
C1993      C1994   1.218       .  T
C1994      C1995   1.458       .  S
C1995      C1996   1.406       .  A
C1995      C2000   1.401       .  A
C1996      C1997   1.410       .  A
C1996      H2005   1.083       .  S
C1997      C1998   1.407       .  A
C1997      H2006   1.083       .  S
C1998      C1999   1.406   1_655  A
C1999      C2000   1.401   1_455  A
C1999      H2007   1.084       .  S
C2000      H2008   1.083   1_655  S
C2009      C2010   1.414       .  A
C2009      C2014   1.408       .  A
C2010      C2011   1.397       .  A
C2010      H2023   1.083   1_655  S
C2011      C2012   1.397       .  A
C2011      H2024   1.084       .  S
C2012      C2013   1.406       .  A
C2012      C2015   1.452       .  S
C2013      C2014   1.410       .  A
C2013      H2025   1.083       .  S
C2014      H2026   1.082       .  S
C2015      C2016   1.214       .  T
C2016      C2017   1.452       .  S
C2017      C2018   1.402       .  A
C2017      C2022   1.401       .  A
C2018      C2019   1.404       .  A
C2018      H2027   1.083       .  S
C2019      C2020   1.411       .  A
C2019      H2028   1.083       .  S
C2020      C2021   1.409       .  A
C2021      C2022   1.401       .  A
C2021      H2029   1.083       .  S
C2022      H2030   1.083       .  S
C2031      C2032   1.407       .  A
C2031      C2036   1.408       .  A
C2032      C2033   1.394       .  A
C2032      H2045   1.083       .  S
C2033      C2034   1.397       .  A
C2033      H2046   1.084       .  S
C2034      C2035   1.397       .  A
C2034      C2037   1.429       .  S
C2035      C2036   1.395       .  A
C2035      H2047   1.084       .  S
C2036      H2048   1.083       .  S
C2037      C2038   1.199       .  T
C2038      C2039   1.428       .  S
C2039      C2040   1.396       .  A
C2039      C2044   1.398       .  A
C2040      C2041   1.393       .  A
C2040      H2049   1.084       .  S
C2041      C2042   1.408       .  A
C2041      H2050   1.083       .  S
C2042      C2043   1.406       .  A
C2043      C2044   1.395       .  A
C2043      H2051   1.083       .  S
C2044      H2052   1.084       .  S
