geometry optimzed in LAMMPS
_audit_creation_date              2020-11-30 
_audit_creation_method            'lammps2cif' 
_symmetry_space_group_name_H-M    'P1' 
_symmetry_Int_Tables_number       1 
_symmetry_cell_setting            triclinic 
loop_ 
_symmetry_equiv_pos_as_xyz 
  x,y,z 
_cell_length_a                    52.13302973 
_cell_length_b                    52.042721797381084 
_cell_length_c                    52.00762383485876 
_cell_angle_alpha                 90.16170432890868 
_cell_angle_beta                  89.9631200234017 
_cell_angle_gamma                 90.0031244603803 
loop_ 
_atom_site_label 
_atom_site_type_symbol 
_atom_site_fract_x 
_atom_site_fract_y 
_atom_site_fract_z 
_atom_site_charge 
N1          N  0.99861271  0.25639637  0.25677747    -0.03500
C2          C  0.00447041  0.25981424  0.23153180    -0.00900
C3          C  0.00418608  0.23658725  0.21856979    -0.23800
C4          C  0.99779607  0.21820162  0.23621090    -0.24000
C5          C  0.99452045  0.23074248  0.25940682    -0.01000
H6          H  0.00766735  0.23344158  0.19828393     0.12800
H7          H  0.99627817  0.19775392  0.23266450     0.12800
O8          O  0.00032630  0.42078157  0.45498510    -0.86500
O9          O  0.99975427  0.56657431  0.45374491    -0.86700
O10         O  0.95801178  0.49193973  0.42444874    -0.88400
O11         O  0.04028904  0.49623484  0.42254606    -0.87100
O12         O  0.07268347  0.49621041  0.45245607    -0.86700
O13         O  0.92655330  0.49288126  0.45534174    -0.88100
O14         O  0.99852397  0.53525163  0.42275044    -0.86600
O15         O  0.99921754  0.45150740  0.42354870    -0.86100
Zr16       Zr  0.99959290  0.49368740  0.44468268     2.84300
O17         O  0.02616994  0.51968316  0.46978580    -1.08100
O18         O  0.97394547  0.46822546  0.47116049    -1.08900
C19         C  0.99950999  0.42784406  0.43116950     1.06600
C20         C  0.99900678  0.55904149  0.43004778     1.06500
C21         C  0.93438077  0.49185455  0.43172058     1.09500
C22         C  0.06412513  0.49711590  0.42908002     1.07300
H23         H  0.96266839  0.53035076  0.45980987     0.32800
O24         O  0.97344018  0.51972632  0.47046676    -1.29100
H25         H  0.03702498  0.45756389  0.45890422     0.32500
O26         O  0.02665145  0.46829381  0.46992360    -1.30800
O27         O  0.00151988  0.56800121  0.53676474    -0.86500
O28         O  0.00091344  0.42179336  0.53844296    -0.88000
O29         O  0.92691655  0.53642519  0.49768124    -0.86600
O30         O  0.07339804  0.53711697  0.49415468    -0.86700
O31         O  0.07421481  0.45229169  0.49423989    -0.86400
O32         O  0.92763040  0.45137806  0.49671219    -0.86200
O33         O  0.96064630  0.49564611  0.56973556    -0.86500
O34         O  0.04279322  0.49554545  0.56861640    -0.86000
O35         O  0.92793109  0.49453555  0.54029533    -0.87100
O36         O  0.07444669  0.49483417  0.53794370    -0.86200
O37         O  0.95902651  0.56653979  0.49729308    -0.86600
O38         O  0.95976756  0.42130834  0.49527647    -0.86300
O39         O  0.04211768  0.42217040  0.49617200    -0.86000
O40         O  0.04115898  0.56711103  0.49341500    -0.86400
O41         O  0.00180933  0.53744289  0.56838321    -0.86700
O42         O  0.00180035  0.45310726  0.56950234    -0.88000
Zr43       Zr  0.00025525  0.54550216  0.49564383     2.83100
Zr44       Zr  0.00079293  0.44297953  0.49652588     2.83500
Zr45       Zr  0.94783033  0.49407405  0.49735598     2.84100
Zr46       Zr  0.05323394  0.49449447  0.49544882     2.83400
Zr47       Zr  0.00144913  0.49491860  0.54775081     2.84200
O48         O  0.02742329  0.46877450  0.52195274    -1.08600
O49         O  0.97457004  0.52033354  0.52243359    -1.08100
C50         C  0.00191389  0.56107292  0.56059613     1.06500
C51         C  0.00123697  0.42929601  0.56218275     1.09200
C52         C  0.93522124  0.55990771  0.49777903     1.06700
C53         C  0.06498520  0.56052870  0.49321729     1.07100
C54         C  0.06587946  0.42885309  0.49499151     1.06700
C55         C  0.93592999  0.42791538  0.49560133     1.06200
C56         C  0.93669310  0.49520897  0.56362453     1.06600
C57         C  0.06651189  0.49545213  0.56161804     1.06200
H58         H  0.96447859  0.45778261  0.53383337     0.32800
O59         O  0.97478797  0.46856731  0.52285515    -1.29700
H60         H  0.03784084  0.53161789  0.53185272     0.32900
O61         O  0.02718715  0.52057480  0.52142916    -1.31100
N62         N  0.00187779  0.73357987  0.73352697    -0.03500
C63         C  0.00510704  0.75937066  0.73094981    -0.00900
C64         C  0.00267191  0.77155544  0.75447754    -0.23800
C65         C  0.99760154  0.75283746  0.77218230    -0.24000
C66         C  0.99725480  0.72979122  0.75895798    -0.01000
H67         H  0.00384094  0.79198499  0.75825517     0.12800
H68         H  0.99496919  0.75564854  0.79264378     0.12800
N69         N  0.99862323  0.25584698  0.73403121    -0.03500
C70         C  0.00448062  0.25804562  0.75941598    -0.00900
C71         C  0.00434219  0.23414084  0.77103786    -0.23800
C72         C  0.99796688  0.21664647  0.75239906    -0.24000
C73         C  0.99456029  0.23040817  0.73003239    -0.01000
H74         H  0.00774799  0.22993517  0.79111752     0.12800
H75         H  0.99651394  0.19603631  0.75473719     0.12800
N76         N  0.98118206  0.73162035  0.25903942    -0.03500
C77         C  0.98404384  0.75735570  0.26249774    -0.00900
C78         C  0.97988711  0.77036442  0.23978053    -0.23800
C79         C  0.97412397  0.75219946  0.22162245    -0.24000
C80         C  0.97514266  0.72860868  0.23376462    -0.01000
H81         H  0.98079352  0.79092026  0.23679778     0.12800
H82         H  0.97058304  0.75575728  0.20143999     0.12800
O83         O  0.00020129  0.03566574  0.42099671    -0.86500
O84         O  0.00052361  0.03928941  0.56753260    -0.86700
O85         O  0.95891211  0.06757267  0.49387793    -0.88400
O86         O  0.04186740  0.06810734  0.49318587    -0.87100
O87         O  0.07324927  0.03733431  0.49457503    -0.86700
O88         O  0.92800529  0.03631212  0.49474792    -0.88100
O89         O  0.00045984  0.06873610  0.53479156    -0.86600
O90         O  0.99891107  0.06659388  0.45251229    -0.86100
Zr91       Zr  0.00058580  0.04618550  0.49414791     2.84300
O92         O  0.02676269  0.02177515  0.52124395    -1.08100
O93         O  0.97497720  0.01985488  0.46838876    -1.08900
C94         C  0.99899927  0.05932004  0.42879872     1.06600
C95         C  0.00024407  0.06257185  0.55877657     1.06500
C96         C  0.93527309  0.06007517  0.49418633     1.09500
C97         C  0.06559341  0.06095520  0.49364130     1.07300
H98         H  0.96401640  0.03216751  0.53163984     0.32800
O99         O  0.97493741  0.02129069  0.52131030    -1.29100
H100        H  0.03737626  0.03087468  0.45734534     0.32500
O101        O  0.02667857  0.02031313  0.46817308    -1.30800
O102        O  0.00084841  0.95448197  0.56986779    -0.86500
O103        O  0.00101974  0.95046799  0.42301082    -0.88000
O104        O  0.92840963  0.99326702  0.53667961    -0.86600
O105        O  0.07398155  0.99407816  0.53655171    -0.86700
O106        O  0.07347539  0.99272670  0.45409829    -0.86400
O107        O  0.92851486  0.99391229  0.45438862    -0.86200
O108        O  0.95996803  0.92205914  0.49753988    -0.86500
O109        O  0.04275035  0.92242533  0.49566231    -0.86000
O110        O  0.92849061  0.95270605  0.49619993    -0.87100
O111        O  0.07365823  0.95366577  0.49463672    -0.86200
O112        O  0.95857484  0.99469097  0.56876741    -0.86600
O113        O  0.95829858  0.99296195  0.42192767    -0.86300
O114        O  0.04346536  0.99144004  0.42187526    -0.86000
O115        O  0.04362638  0.99582448  0.56855487    -0.86400
O116        O  0.00087817  0.92375730  0.53818785    -0.86700
O117        O  0.00122570  0.92140521  0.45605942    -0.88000
Zr118      Zr  0.00107630  0.99627891  0.54815770     2.83100
Zr119      Zr  0.00091852  0.99359528  0.44238584     2.83500
Zr120      Zr  0.94969125  0.99463137  0.49547946     2.84100
Zr121      Zr  0.05229138  0.99534496  0.49533451     2.83400
Zr122      Zr  0.00124824  0.94391847  0.49649244     2.84200
O123        O  0.02681932  0.96887448  0.46958861    -1.08600
O124        O  0.97539369  0.96976556  0.52234838    -1.08100
C125        C  0.00064151  0.93086469  0.56193528     1.06500
C126        C  0.00104467  0.92727526  0.43204029     1.09200
C127        C  0.93513928  0.99328545  0.56051828     1.06700
C128        C  0.06709101  0.99439053  0.56039153     1.07100
C129        C  0.06690154  0.99126971  0.43024901     1.06700
C130        C  0.93491380  0.99328949  0.43048275     1.06200
C131        C  0.93621763  0.92910784  0.49718825     1.06600
C132        C  0.06635600  0.92993691  0.49485344     1.06200
H133        H  0.96445753  0.95718768  0.45929631     0.32800
O134        O  0.97520946  0.96835766  0.46948073    -1.29700
H135        H  0.03776609  0.95922868  0.53285163     0.32900
O136        O  0.02700885  0.96995766  0.52227430    -1.31100
N137        N  0.23693698  0.23297005  0.48350611    -0.03500
C138        C  0.26270382  0.23012355  0.48620075    -0.00900
C139        C  0.27505642  0.25323712  0.48194629    -0.23800
C140        C  0.25641691  0.27091464  0.47637957    -0.24000
C141        C  0.23322923  0.25811421  0.47762806    -0.01000
H142        H  0.29550851  0.25677486  0.48242149     0.12800
H143        H  0.25940426  0.29114348  0.47264200     0.12800
N144        N  0.76267865  0.23145507  0.48472358    -0.03500
C145        C  0.73732214  0.22778587  0.47980903    -0.00900
C146        C  0.72470999  0.25113337  0.47860999    -0.23800
C147        C  0.74266993  0.26978512  0.48328492    -0.24000
C148        C  0.76573221  0.25729247  0.48699346    -0.01000
H149        H  0.70436462  0.25421353  0.47585838     0.12800
H150        H  0.73927430  0.29029073  0.48403872     0.12800
N151        N  0.76410376  0.75764935  0.49151437    -0.03500
C152        C  0.76654246  0.73205154  0.48695346    -0.00900
C153        C  0.74272340  0.72036093  0.48690829    -0.23800
C154        C  0.72505929  0.73925104  0.49190423    -0.24000
C155        C  0.73860792  0.76189922  0.49462883    -0.01000
H156        H  0.73869479  0.70010441  0.48442578     0.12800
H157        H  0.70448042  0.73680898  0.49316633     0.12800
N158        N  0.23709770  0.75712000  0.49654314    -0.03500
C159        C  0.23350849  0.73183362  0.50182623    -0.00900
C160        C  0.25658448  0.71880576  0.50124162    -0.23800
C161        C  0.27507048  0.73654513  0.49518407    -0.24000
C162        C  0.26268789  0.75984617  0.49253503    -0.01000
H163        H  0.25952361  0.69842823  0.50410654     0.12800
H164        H  0.29546112  0.73298985  0.49354552     0.12800
N165        N  0.73761502  0.01451510  0.25984408    -0.03500
C166        C  0.73422731  0.01999295  0.23451247    -0.00900
C167        C  0.75768018  0.02340643  0.22250867    -0.23800
C168        C  0.77612351  0.01954660  0.24075989    -0.24000
C169        C  0.76342131  0.01405293  0.26337693    -0.01000
H170        H  0.76110647  0.02691452  0.20229434     0.12800
H171        H  0.79666509  0.02017787  0.23777875     0.12800
O172        O  0.45558841  0.06752500  0.49567221    -0.86500
O173        O  0.45815977  0.92087404  0.49661988    -0.86700
O174        O  0.42725141  0.99428628  0.45453859    -0.88400
O175        O  0.42680007  0.99373667  0.53898529    -0.87100
O176        O  0.45785461  0.99401406  0.57013617    -0.86700
O177        O  0.45862901  0.99516395  0.42369380    -0.88100
O178        O  0.42767417  0.95265885  0.49695607    -0.86600
O179        O  0.42595093  0.03493519  0.49580976    -0.86100
Zr180      Zr  0.44815214  0.99425176  0.49682447     2.84300
O181        O  0.47411462  0.96836961  0.52258252    -1.08100
O182        O  0.47342416  0.02091764  0.47108680    -1.08900
C183        C  0.43223636  0.05887983  0.49531137     1.06600
C184        C  0.43459827  0.92888751  0.49679216     1.06500
C185        C  0.43491189  0.99482379  0.43084397     1.09500
C186        C  0.43414027  0.99364872  0.56278856     1.07300
H187        H  0.46362170  0.95770386  0.46004094     0.32800
O188        O  0.47422221  0.96831974  0.47093894    -1.29100
H189        H  0.46207487  0.03156686  0.53348812     0.32500
O190        O  0.47309338  0.02124894  0.52270556    -1.30800
O191        O  0.54306898  0.92203668  0.49582816    -0.86500
O192        O  0.54100436  0.06892068  0.49762902    -0.88000
O193        O  0.50039741  0.95375354  0.42447051    -0.86600
O194        O  0.49951551  0.95430859  0.56955994    -0.86700
O195        O  0.49891931  0.03666954  0.56933810    -0.86400
O196        O  0.49865807  0.03625315  0.42405631    -0.86200
O197        O  0.57235790  0.99585901  0.45472258    -0.86500
O198        O  0.57236023  0.99635787  0.53845504    -0.86000
O199        O  0.54125453  0.99557032  0.42366633    -0.87100
O200        O  0.54113052  0.99681843  0.56945986    -0.86200
O201        O  0.50080772  0.92141619  0.45432144    -0.86600
O202        O  0.49798434  0.06845100  0.45423876    -0.86300
O203        O  0.49789703  0.06884400  0.53932355    -0.86000
O204        O  0.50020180  0.92197405  0.53949507    -0.86400
O205        O  0.57283886  0.95453533  0.49627087    -0.86700
O206        O  0.57149151  0.03707710  0.49790538    -0.88000
Zr207      Zr  0.50034021  0.94217371  0.49677202     2.83100
Zr208      Zr  0.49865087  0.04796520  0.49682890     2.83500
Zr209      Zr  0.49983132  0.99510701  0.44557094     2.84100
Zr210      Zr  0.49940332  0.99529676  0.54811578     2.83400
Zr211      Zr  0.55091012  0.99557696  0.49670349     2.84200
O212        O  0.52484090  0.02172921  0.52242483    -1.08600
O213        O  0.52585440  0.96883409  0.47085152    -1.08100
C214        C  0.56643575  0.93058897  0.49595561     1.06500
C215        C  0.56454271  0.06084007  0.49814844     1.09200
C216        C  0.50066389  0.92986526  0.43090861     1.06700
C217        C  0.49968576  0.93043222  0.56297055     1.07100
C218        C  0.49818195  0.06053370  0.56280627     1.06700
C219        C  0.49798885  0.06013375  0.43070641     1.06200
C220        C  0.56495032  0.99578979  0.43096492     1.06600
C221        C  0.56484952  0.99699560  0.56215410     1.06200
H222        H  0.53581055  0.03257683  0.46027307     0.32800
O223        O  0.52517654  0.02193320  0.47105048    -1.29700
H224        H  0.53664961  0.95873280  0.53356537     0.32900
O225        O  0.52573963  0.96902721  0.52273243    -1.31100
N226        N  0.26123103  0.99863689  0.73573444    -0.03500
C227        C  0.23561492  0.00185300  0.73215450    -0.00900
C228        C  0.22273508  0.00059073  0.75536976    -0.23800
C229        C  0.24088472  0.99628941  0.77389884    -0.24000
C230        C  0.26428611  0.99520288  0.76143435    -0.01000
H231        H  0.20222137  0.00177168  0.75838662     0.12800
H232        H  0.23741641  0.99426049  0.79431613     0.12800
N233        N  0.73830432  0.99515702  0.73274369    -0.03500
C234        C  0.73548885  0.99101144  0.75835162    -0.00900
C235        C  0.75885335  0.99279296  0.77075413    -0.23800
C236        C  0.77674329  0.99830587  0.75226996    -0.24000
C237        C  0.76373505  0.99947347  0.72916963    -0.01000
H238        H  0.76240872  0.99074501  0.79114784     0.12800
H239        H  0.79719554  0.00032915  0.75520853     0.12800
N240        N  0.26376562  0.99308676  0.25787115    -0.03500
C241        C  0.26678973  0.98908823  0.23217775    -0.00900
C242        C  0.24346309  0.99132468  0.21970652    -0.23800
C243        C  0.22550381  0.99681830  0.23812816    -0.24000
C244        C  0.23833529  0.99769842  0.26133514    -0.01000
H245        H  0.23990965  0.98948158  0.19928278     0.12800
H246        H  0.20511751  0.99920612  0.23502092     0.12800
O247        O  0.57551892  0.99563250  0.03896287    -0.86500
O248        O  0.42918160  0.99363199  0.03879799    -0.86700
O249        O  0.50253384  0.03739152  0.06895915    -0.88400
O250        O  0.50288590  0.95396034  0.06972701    -0.87100
O251        O  0.50302920  0.92267423  0.03865151    -0.86700
O252        O  0.50071557  0.06819707  0.03758246    -0.88100
O253        O  0.46110857  0.99480638  0.06914766    -0.86600
O254        O  0.54336653  0.99612577  0.06907244    -0.86100
Zr255      Zr  0.50231007  0.99533273  0.04775503     2.84300
O256        O  0.47630036  0.96894592  0.02232413    -1.08100
O257        O  0.52841276  0.02118060  0.02209610    -1.08900
C258        C  0.56718491  0.99605151  0.06246370     1.06600
C259        C  0.43734303  0.99402684  0.06231799     1.06500
C260        C  0.50142118  0.06100883  0.06134371     1.09500
C261        C  0.50310075  0.93021150  0.06237452     1.07300
H262        H  0.46499683  0.03134622  0.03284535     0.32800
O263        O  0.47562153  0.02058101  0.02209426    -1.29100
H264        H  0.53959758  0.95868722  0.03318058     0.32500
O265        O  0.52896741  0.96935840  0.02241702    -1.30800
O266        O  0.42877490  0.99414909  0.95392230    -0.86500
O267        O  0.57540569  0.99504826  0.95383409    -0.88000
O268        O  0.46054049  0.06689917  0.99560647    -0.86600
O269        O  0.46209500  0.92159571  0.99711123    -0.86700
O270        O  0.54414683  0.92228512  0.99490082    -0.86400
O271        O  0.54276620  0.06775649  0.99671302    -0.86200
O272        O  0.50085108  0.03614935  0.92333373    -0.86500
O273        O  0.50244718  0.95258521  0.92369823    -0.86000
O274        O  0.50026634  0.06750305  0.95434361    -0.87100
O275        O  0.50271372  0.92163705  0.95493809    -0.86200
O276        O  0.42862181  0.03656297  0.99574465    -0.86600
O277        O  0.57522735  0.03800343  0.99679501    -0.86300
O278        O  0.57580002  0.95291127  0.99516661    -0.86000
O279        O  0.42963056  0.95133670  0.99651238    -0.86400
O280        O  0.46070137  0.99426842  0.92356054    -0.86700
O281        O  0.54333400  0.99490608  0.92359845    -0.88000
Zr282      Zr  0.44958196  0.99420283  0.99630411     2.83100
Zr283      Zr  0.55497545  0.99531545  0.99636382     2.83500
Zr284      Zr  0.50177542  0.04610439  0.99609353     2.84100
Zr285      Zr  0.50288537  0.94348613  0.99657415     2.83400
Zr286      Zr  0.50209823  0.99452050  0.94486793     2.84200
O287        O  0.52875181  0.96920573  0.97056087    -1.08600
O288        O  0.47564979  0.02018950  0.97039716    -1.08100
C289        C  0.43687890  0.99414434  0.93035470     1.06500
C290        C  0.56713207  0.99501084  0.93034291     1.09200
C291        C  0.43679538  0.06009766  0.99557888     1.06700
C292        C  0.43820958  0.92794805  0.99690703     1.07100
C293        C  0.56786412  0.92930710  0.99442519     1.06700
C294        C  0.56666225  0.06139756  0.99693836     1.06200
C295        C  0.50005737  0.05990219  0.93064598     1.06600
C296        C  0.50247729  0.92891251  0.93118517     1.06200
H297        H  0.53869274  0.03166536  0.95943131     0.32800
O298        O  0.52836569  0.02075057  0.97026976    -1.29700
H299        H  0.46577722  0.95747029  0.95980862     0.32900
O300        O  0.47618206  0.96844638  0.97054829    -1.31100
N301        N  0.50225009  0.23335291  0.23413002    -0.03500
C302        C  0.49828835  0.23032065  0.25981059    -0.00900
C303        C  0.50207431  0.25327406  0.27268022    -0.23800
C304        C  0.50875575  0.27108210  0.25454078    -0.24000
C305        C  0.50858321  0.25854072  0.23110071    -0.01000
H306        H  0.50053134  0.25659943  0.29317627     0.12800
H307        H  0.51237893  0.29128622  0.25794618     0.12800
N308        N  0.50057776  0.75780700  0.23395983    -0.03500
C309        C  0.50473715  0.73220523  0.23110670    -0.00900
C310        C  0.50104817  0.71955427  0.25414365    -0.23800
C311        C  0.49438921  0.73787496  0.27187105    -0.24000
C312        C  0.49440498  0.76111871  0.25910593    -0.01000
H313        H  0.50274674  0.69912712  0.25760432     0.12800
H314        H  0.49086700  0.73472244  0.29212983     0.12800
N315        N  0.49007270  0.75727065  0.75866223    -0.03500
C316        C  0.48317007  0.73231056  0.76175726    -0.00900
C317        C  0.48052988  0.72027836  0.73819660    -0.23800
C318        C  0.48632767  0.73826884  0.71989010    -0.24000
C319        C  0.49207015  0.76073347  0.73288379    -0.01000
H320        H  0.47574967  0.70032944  0.73473796     0.12800
H321        H  0.48601805  0.73541194  0.69927067     0.12800
N322        N  0.48320711  0.23254657  0.76010086    -0.03500
C323        C  0.47627870  0.22908995  0.73510803    -0.00900
C324        C  0.47356210  0.25253438  0.72298576    -0.23800
C325        C  0.47930928  0.27103551  0.74084169    -0.24000
C326        C  0.48522847  0.25840060  0.76342039    -0.01000
H327        H  0.46907400  0.25582472  0.70294818     0.12800
H328        H  0.47932256  0.29157873  0.73765299     0.12800
O329        O  0.00427087  0.42210563  0.03783699    -0.86500
O330        O  0.99795281  0.56836761  0.03822392    -0.86700
O331        O  0.04352268  0.49513012  0.06912908    -0.88400
O332        O  0.96055946  0.49460170  0.06834913    -0.87100
O333        O  0.92947821  0.49347368  0.03723904    -0.86700
O334        O  0.07495404  0.49586198  0.03832608    -0.88100
O335        O  0.99951769  0.53642347  0.06845141    -0.86600
O336        O  0.00321450  0.45415350  0.06816285    -0.86100
Zr337      Zr  0.00220991  0.49529645  0.04694742     2.84300
O338        O  0.97582019  0.52086302  0.02133137    -1.08100
O339        O  0.02883895  0.46961634  0.02150062    -1.08900
C340        C  0.00395931  0.43033781  0.06137337     1.06600
C341        C  0.99771882  0.56017742  0.06173692     1.06500
C342        C  0.06729942  0.49518664  0.06201843     1.09500
C343        C  0.93688249  0.49387813  0.06102353     1.07300
H344        H  0.03798154  0.53321862  0.03289120     0.32800
O345        O  0.02768061  0.52241317  0.02186550    -1.29100
H346        H  0.96649317  0.45737123  0.03194886     0.32500
O347        O  0.97710208  0.46819295  0.02129174    -1.30800
O348        O  0.00132965  0.56848501  0.95330283    -0.86500
O349        O  0.00316403  0.42198497  0.95302304    -0.88000
O350        O  0.07362312  0.53880700  0.99601428    -0.86600
O351        O  0.92860511  0.53447370  0.99470000    -0.86700
O352        O  0.93165200  0.45178338  0.99342975    -0.86400
O353        O  0.07622833  0.45551300  0.99529948    -0.86200
O354        O  0.04512003  0.49716846  0.92302190    -0.86500
O355        O  0.96157024  0.49453312  0.92214337    -0.86000
O356        O  0.07586442  0.49853813  0.95446401    -0.87100
O357        O  0.93035071  0.49392292  0.95319432    -0.86200
O358        O  0.04257831  0.57004754  0.99616574    -0.86600
O359        O  0.04655456  0.42293908  0.99532233    -0.86300
O360        O  0.96236925  0.42027896  0.99409706    -0.86000
O361        O  0.95817092  0.56711600  0.99482528    -0.86400
O362        O  0.00285087  0.53646305  0.92294483    -0.86700
O363        O  0.00325239  0.45384343  0.92264070    -0.88000
Zr364      Zr  0.00109894  0.54784305  0.99572161     2.83100
Zr365      Zr  0.00383296  0.44264011  0.99539736     2.83500
Zr366      Zr  0.05405271  0.49655792  0.99604925     2.84100
Zr367      Zr  0.95117993  0.49389948  0.99527166     2.83400
Zr368      Zr  0.00310602  0.49519042  0.94405396     2.84200
O369        O  0.97764701  0.46838798  0.96944617    -1.08600
O370        O  0.02785240  0.52207955  0.97012665    -1.08100
C371        C  0.00219932  0.56028349  0.92976543     1.06500
C372        C  0.00296524  0.43004856  0.92949763     1.09200
C373        C  0.06625046  0.56248470  0.99618142     1.06700
C374        C  0.93487832  0.55844201  0.99459050     1.07100
C375        C  0.93878407  0.42805680  0.99313425     1.06700
C376        C  0.06988145  0.43152157  0.99528998     1.06200
C377        C  0.06872282  0.49842783  0.93064508     1.06600
C378        C  0.93784841  0.49425008  0.92948246     1.06200
H379        H  0.04048149  0.45929846  0.95888736     0.32800
O380        O  0.02942905  0.46951954  0.96973285    -1.29700
H381        H  0.96546390  0.53103458  0.95865038     0.32900
O382        O  0.97633895  0.52076881  0.96955251    -1.31100
N383        N  0.76378224  0.48985627  0.23346161    -0.03500
C384        C  0.76690172  0.49351623  0.25918224    -0.00900
C385        C  0.74375125  0.49159930  0.27192077    -0.23800
C386        C  0.72561177  0.48652550  0.25367314    -0.24000
C387        C  0.73818502  0.48559793  0.23025589    -0.01000
H388        H  0.74050064  0.49325007  0.29241931     0.12800
H389        H  0.70523401  0.48443421  0.25706956     0.12800
N390        N  0.23901096  0.49859531  0.23512636    -0.03500
C391        C  0.26452986  0.49502987  0.23117321    -0.00900
C392        C  0.27796419  0.49788491  0.25388365    -0.23800
C393        C  0.26029131  0.50342551  0.27254050    -0.24000
C394        C  0.23653206  0.50372351  0.26069353    -0.01000
H395        H  0.29851567  0.49652207  0.25650592     0.12800
H396        H  0.26433257  0.50637427  0.29274367     0.12800
N397        N  0.24064167  0.50296694  0.75745616    -0.03500
C398        C  0.26592682  0.50887486  0.76034979    -0.00900
C399        C  0.27812131  0.50951726  0.73675390    -0.23800
C400        C  0.26002434  0.50350225  0.71865855    -0.24000
C401        C  0.23727830  0.49959993  0.73171591    -0.01000
H402        H  0.29822660  0.51326353  0.73315231     0.12800
H403        H  0.26300033  0.50254779  0.69807790     0.12800
N404        N  0.76379777  0.48164959  0.76007367    -0.03500
C405        C  0.76735830  0.48477200  0.73435859    -0.00900
C406        C  0.74482749  0.47996697  0.72122326    -0.23800
C407        C  0.72680005  0.47356506  0.73925960    -0.24000
C408        C  0.73875066  0.47481180  0.76296513    -0.01000
H409        H  0.74188007  0.48075907  0.70064231     0.12800
H410        H  0.70681058  0.46937189  0.73552347     0.12800
N411        N  0.26529623  0.25747366  0.98901543    -0.03500
C412        C  0.23954194  0.26031622  0.99173125    -0.00900
C413        C  0.22717552  0.23712870  0.98802931    -0.23800
C414        C  0.24584389  0.21933173  0.98276597    -0.24000
C415        C  0.26902950  0.23219901  0.98358855    -0.01000
H416        H  0.20673032  0.23360939  0.98884198     0.12800
H417        H  0.24290109  0.19899732  0.97948453     0.12800
O418        O  0.50102998  0.45384620  0.06992849    -0.86500
O419        O  0.50059930  0.45362912  0.92344153    -0.86700
O420        O  0.45967378  0.42357596  0.99735023    -0.88400
O421        O  0.54316497  0.42446262  0.99646644    -0.87100
O422        O  0.57415324  0.45567771  0.99761412    -0.86700
O423        O  0.42836088  0.45445339  0.99708079    -0.88100
O424        O  0.50068012  0.42372606  0.95577259    -0.86600
O425        O  0.50179951  0.42366853  0.03769074    -0.86100
Zr426      Zr  0.50120819  0.44541109  0.99683563     2.84300
O427        O  0.52694139  0.47105780  0.97059266    -1.08100
O428        O  0.47503773  0.47056814  0.02329898    -1.08900
C429        C  0.50170349  0.43033548  0.06155663     1.06600
C430        C  0.50042212  0.43019767  0.93188361     1.06500
C431        C  0.43593026  0.43079659  0.99724917     1.09500
C432        C  0.56683062  0.43190218  0.99714935     1.07300
H433        H  0.46418282  0.45965389  0.95996662     0.32800
O434        O  0.47499585  0.47048246  0.97046401    -1.29100
H435        H  0.53780080  0.46061052  0.03373032     0.32500
O436        O  0.52690322  0.47124390  0.02319123    -1.30800
O437        O  0.49921570  0.53865087  0.92337260    -0.86500
O438        O  0.50123675  0.53933984  0.07005735    -0.88000
O439        O  0.42827358  0.49790163  0.95570094    -0.86600
O440        O  0.57334791  0.49587936  0.95537397    -0.86700
O441        O  0.57329061  0.49951370  0.03838935    -0.86400
O442        O  0.42867658  0.49628373  0.03848520    -0.86200
O443        O  0.45826013  0.56904208  0.99672669    -0.86500
O444        O  0.54156826  0.57033431  0.99673807    -0.86000
O445        O  0.42734726  0.53776601  0.99666372    -0.87100
O446        O  0.57309284  0.53967372  0.99660549    -0.80800
O447        O  0.45845612  0.49762755  0.92358600    -0.86600
O448        O  0.45854451  0.49641987  0.07081962    -0.86300
O449        O  0.54286543  0.49754595  0.07030266    -0.86000
O450        O  0.54306562  0.49538913  0.92338409    -0.86400
O451        O  0.49893308  0.56901822  0.95542495    -0.86700
O452        O  0.50072143  0.56929018  0.03779383    -0.88000
Zr453      Zr  0.50078387  0.49631348  0.94407867     2.83100
Zr454      Zr  0.50064978  0.49666429  0.04966651     2.83500
Zr455      Zr  0.44946009  0.49631175  0.99696877     2.84100
Zr456      Zr  0.55228010  0.49738153  0.99686263     2.83400
Zr457      Zr  0.50026340  0.54797048  0.99667870     2.84200
O458        O  0.52615100  0.52273407  0.02313813    -1.08600
O459        O  0.47484680  0.52199366  0.97053945    -1.08100
C460        C  0.49856635  0.56217376  0.93159935     1.06500
C461        C  0.50133052  0.56276884  0.06164525     1.09200
C462        C  0.43502645  0.49846347  0.93185705     1.06700
C463        C  0.56654435  0.49505900  0.93153472     1.07100
C464        C  0.56630976  0.49897220  0.06219240     1.06700
C465        C  0.43516233  0.49643048  0.06239651     1.06200
C466        C  0.43459209  0.56154143  0.99668366     1.06600
C467        C  0.56538445  0.56333380  0.99673389     1.06200
H468        H  0.46386686  0.53324604  0.03385217     0.32800
O469        O  0.47469290  0.52245063  0.02332690    -1.29700
H470        H  0.53709955  0.53358729  0.95960541     0.32900
O471        O  0.52649323  0.52273602  0.97023424    -1.31100
N472        N  0.74068698  0.73318246  0.99608598    -0.03500
C473        C  0.73876586  0.75850633  0.98996621    -0.00900
C474        C  0.76267826  0.77000968  0.99022177    -0.23800
C475        C  0.77992177  0.75137869  0.99689458    -0.24000
C476        C  0.76606529  0.72902562  0.00037398    -0.01000
H477        H  0.76705716  0.79000589  0.98660558     0.12800
H478        H  0.80049665  0.75371994  0.99844011     0.12800
N479        N  0.26333415  0.73486910  0.99684923    -0.03500
C480        C  0.26730690  0.76002387  0.99125798    -0.00900
C481        C  0.24442731  0.77338696  0.99125601    -0.23800
C482        C  0.22563152  0.75597541  0.99720720    -0.24000
C483        C  0.23763884  0.73251065  0.00048873    -0.01000
H484        H  0.24176884  0.79370248  0.98774701     0.12800
H485        H  0.20526358  0.75985809  0.99833582     0.12800
N486        N  0.73797529  0.25966955  0.98231651    -0.03500
C487        C  0.76279901  0.26401238  0.97568127    -0.00900
C488        C  0.77550839  0.24116855  0.97131445    -0.23800
C489        C  0.75808753  0.22194539  0.97559172    -0.24000
C490        C  0.73520953  0.23366689  0.98233974    -0.01000
H491        H  0.79555291  0.23875430  0.96643982     0.12800
H492        H  0.76171234  0.20153228  0.97390186     0.12800
C493        C  0.58697505  0.41152704  0.99756816    -0.03400
C494        C  0.58014745  0.38533419  0.99625027    -0.09200
C495        C  0.59896536  0.36612863  0.99652678    -0.16800
C496        C  0.62496059  0.37265788  0.99817145     0.25300
C497        C  0.63199388  0.39861054  0.99966260    -0.18500
C498        C  0.61319667  0.41789183  0.99936490    -0.07400
C499        C  0.64436649  0.35276649  0.99762929    -0.13800
C500        C  0.66059394  0.33617988  0.99622761    -0.13600
C501        C  0.68025489  0.31677965  0.99313911     0.25200
C502        C  0.69691437  0.31793607  0.97204900    -0.19000
C503        C  0.71588517  0.29923117  0.96869079    -0.07500
C504        C  0.71850852  0.27900254  0.98633466    -0.03500
C505        C  0.70180684  0.27790103  0.00753624    -0.08800
C506        C  0.68277070  0.29669018  0.01090671    -0.16500
H507        H  0.56022909  0.37960159  0.99488088     0.11700
H508        H  0.59321608  0.34615613  0.99529726     0.10900
H509        H  0.65203788  0.40396974  0.00089714     0.10900
H510        H  0.61923715  0.43776891  0.00048620     0.11400
H511        H  0.69517327  0.33326352  0.95810416     0.11500
H512        H  0.72834872  0.30030251  0.95207234     0.11400
H513        H  0.70359996  0.26259205  0.02146607     0.11600
H514        H  0.67003114  0.29554177  0.02732489     0.10400
C515        C  0.28248365  0.71484090  0.99767100    -0.03400
C516        C  0.28344819  0.69749853  0.01831754    -0.09200
C517        C  0.30226339  0.67824445  0.01904539    -0.16800
C518        C  0.32029831  0.67607886  0.99912234     0.25300
C519        C  0.31936043  0.69331960  0.97851093    -0.18500
C520        C  0.30061584  0.71254543  0.97779283    -0.07400
C521        C  0.33970647  0.65619327  0.99962842    -0.13800
C522        C  0.35609957  0.63971094  0.99937008    -0.13600
C523        C  0.37578018  0.62008798  0.99857449     0.25200
C524        C  0.40164052  0.62675487  0.00153706    -0.19000
C525        C  0.42072308  0.60780358  0.00069759    -0.07500
C526        C  0.41428369  0.58174965  0.99696846    -0.03500
C527        C  0.38820680  0.57526435  0.99388230    -0.08800
C528        C  0.36916347  0.59428132  0.99465518    -0.16500
H529        H  0.26979629  0.69905592  0.03393749     0.11700
H530        H  0.30275646  0.66507955  0.03513353     0.10900
H531        H  0.33309653  0.69186680  0.96293507     0.10900
H532        H  0.30007367  0.72553047  0.96158020     0.11400
H533        H  0.40708250  0.64662996  0.00453890     0.11500
H534        H  0.44052002  0.61357987  0.00319885     0.11400
H535        H  0.38247312  0.55548789  0.99085743     0.11600
H536        H  0.34925185  0.58883124  0.99223035     0.10400
C537        C  0.58533958  0.58398668  0.99703362    -0.03400
C538        C  0.57841248  0.61015038  0.99559643    -0.09200
C539        C  0.59715373  0.62950826  0.99651224    -0.16800
C540        C  0.62317485  0.62315705  0.99890625     0.25300
C541        C  0.63026413  0.59721191  0.00009299    -0.18500
C542        C  0.61158556  0.57782430  0.99914015    -0.07400
C543        C  0.64261998  0.64313148  0.99997062    -0.13800
C544        C  0.65924390  0.65946011  0.00036138    -0.13600
C545        C  0.67953394  0.67858170  0.99973761     0.25200
C546        C  0.69697150  0.68087278  0.02017520    -0.19000
C547        C  0.71717835  0.69867497  0.01893064    -0.07500
C548        C  0.72011947  0.71457423  0.99731570    -0.03500
C549        C  0.70244209  0.71238357  0.97703804    -0.08800
C550        C  0.68235752  0.69451208  0.97822257    -0.16500
H551        H  0.55848125  0.61572629  0.99384271     0.11700
H552        H  0.59131169  0.64945285  0.99542943     0.10900
H553        H  0.65028587  0.59192948  0.00184026     0.10900
H554        H  0.61774353  0.55799133  0.00027179     0.11400
H555        H  0.69506596  0.66878136  0.03698782     0.11500
H556        H  0.73040719  0.70024348  0.03489579     0.11400
H557        H  0.70439041  0.72437664  0.96017652     0.11600
H558        H  0.66912601  0.69298838  0.96223950     0.10400
C559        C  0.28459608  0.27727374  0.99081486    -0.03400
C560        C  0.28486627  0.29447929  0.01169673    -0.09200
C561        C  0.30358877  0.31374572  0.01327894    -0.16800
C562        C  0.32221106  0.31607943  0.99396258     0.25300
C563        C  0.32198611  0.29898937  0.97310559    -0.18500
C564        C  0.30334242  0.27969626  0.97156125    -0.07400
C565        C  0.34154589  0.33594022  0.99540852    -0.13800
C566        C  0.35792093  0.35239256  0.99606068    -0.13600
C567        C  0.37753416  0.37202211  0.99646967     0.25200
C568        C  0.37069355  0.39797550  0.99823167    -0.19000
C569        C  0.38963597  0.41704118  0.99855429    -0.07500
C570        C  0.41582675  0.41046723  0.99712428    -0.03500
C571        C  0.42250420  0.38428223  0.99533888    -0.08800
C572        C  0.40349787  0.36525098  0.99499234    -0.16500
H573        H  0.27072758  0.29280910  0.02685238     0.11700
H574        H  0.30354798  0.32678851  0.02955052     0.10900
H575        H  0.33621109  0.30060153  0.95800111     0.10900
H576        H  0.30333100  0.26679061  0.95520158     0.11400
H577        H  0.35068618  0.40350125  0.99934422     0.11500
H578        H  0.38371232  0.43693843  0.99994111     0.11400
H579        H  0.44240752  0.37845655  0.99410120     0.11600
H580        H  0.40906837  0.34524252  0.99354940     0.10400
C581        C  0.58760797  0.49308798  0.91241060    -0.03400
C582        C  0.58251490  0.49012533  0.88599020    -0.09200
C583        C  0.60269773  0.48679199  0.86847920    -0.16800
C584        C  0.62814938  0.48640439  0.87715362     0.25300
C585        C  0.63337165  0.48976314  0.90327623    -0.18500
C586        C  0.61333867  0.49309800  0.92075391    -0.07400
C587        C  0.64904138  0.48230522  0.85948104    -0.13800
C588        C  0.66686972  0.47896629  0.84505218    -0.13600
C589        C  0.68752816  0.47549896  0.82696311     0.25200
C590        C  0.70804043  0.49290589  0.82630299    -0.19000
C591        C  0.72628565  0.49150672  0.80655284    -0.07500
C592        C  0.72413011  0.47264681  0.78730072    -0.03500
C593        C  0.70434678  0.45433907  0.78903667    -0.08800
C594        C  0.68616209  0.45577391  0.80871199    -0.16500
H595        H  0.56299079  0.48999642  0.87889899     0.11700
H596        H  0.59844363  0.48426492  0.84824343     0.10900
H597        H  0.65296970  0.48956779  0.91020380     0.10900
H598        H  0.61810083  0.49536381  0.94089594     0.11400
H599        H  0.70925165  0.50828241  0.84033301     0.11500
H600        H  0.74093037  0.50619876  0.80537543     0.11400
H601        H  0.70221329  0.43967647  0.77436678     0.11600
H602        H  0.67043042  0.44216698  0.80902866     0.10400
C603        C  0.28022293  0.51140259  0.78474552    -0.03400
C604        C  0.27788277  0.49280253  0.80411674    -0.09200
C605        C  0.29513066  0.49256796  0.82473274    -0.16800
C606        C  0.31479283  0.51088727  0.82606055     0.25300
C607        C  0.31638170  0.53018713  0.80749725    -0.18500
C608        C  0.29923204  0.53042118  0.78693326    -0.07400
C609        C  0.33464037  0.50877595  0.84508365    -0.13800
C610        C  0.35226363  0.50691468  0.85991606    -0.13600
C611        C  0.37324129  0.50476390  0.87767410     0.25200
C612        C  0.36852070  0.50700955  0.90399519    -0.19000
C613        C  0.38864740  0.50489906  0.92147305    -0.07500
C614        C  0.41393599  0.50050338  0.91289311    -0.03500
C615        C  0.41856211  0.49839830  0.88631737    -0.08800
C616        C  0.39827518  0.50047627  0.86880886    -0.16500
H617        H  0.26372553  0.47765647  0.80254826     0.11700
H618        H  0.29381848  0.47748816  0.83899098     0.10900
H619        H  0.33152209  0.54443251  0.80834168     0.10900
H620        H  0.30143392  0.54486676  0.77213910     0.11400
H621        H  0.34924465  0.51040530  0.91103766     0.11500
H622        H  0.38431534  0.50684894  0.94175180     0.11400
H623        H  0.43775869  0.49506708  0.87907716     0.11600
H624        H  0.40210145  0.49874106  0.84840013     0.10400
C625        C  0.41364070  0.49677210  0.08104037    -0.03400
C626        C  0.41771689  0.49499444  0.10772117    -0.09200
C627        C  0.39677153  0.49461272  0.12464364    -0.16800
C628        C  0.37167947  0.49606949  0.11503606     0.25300
C629        C  0.36754776  0.49832321  0.08867686    -0.18500
C630        C  0.38827170  0.49869297  0.07183136    -0.07400
C631        C  0.34994867  0.49460702  0.13191690    -0.13800
C632        C  0.33166847  0.49287073  0.14593816    -0.13600
C633        C  0.31161035  0.49043136  0.16466715     0.25200
C634        C  0.29053291  0.50716960  0.16463919    -0.19000
C635        C  0.27349700  0.50735414  0.18548313    -0.07500
C636        C  0.27761017  0.49081640  0.20637671    -0.03500
C637        C  0.29778112  0.47298015  0.20533731    -0.08800
C638        C  0.31466413  0.47278142  0.18459902    -0.16500
H639        H  0.43694670  0.49360149  0.11545099     0.11700
H640        H  0.40011316  0.49291279  0.14512751     0.10900
H641        H  0.34823550  0.49953193  0.08107425     0.10900
H642        H  0.38426363  0.50031288  0.05147611     0.11400
H643        H  0.28806515  0.52093933  0.14925355     0.11500
H644        H  0.25832593  0.52155346  0.18610590     0.11400
H645        H  0.30129483  0.46013150  0.22130473     0.11600
H646        H  0.33088735  0.45976361  0.18478002     0.10400
C647        C  0.72386135  0.48333212  0.20583286    -0.03400
C648        C  0.70263482  0.46667468  0.20479109    -0.09200
C649        C  0.68494029  0.46837530  0.18478791    -0.16800
C650        C  0.68827130  0.48666183  0.16545751     0.25300
C651        C  0.71007657  0.50243235  0.16554849    -0.18500
C652        C  0.72783346  0.50080751  0.18569736    -0.07400
C653        C  0.66828774  0.49035128  0.14678298    -0.13800
C654        C  0.65043580  0.49331313  0.13238612    -0.13600
C655        C  0.62873298  0.49632115  0.11561038     0.25200
C656        C  0.63161062  0.50900748  0.09213031    -0.19000
C657        C  0.61099009  0.51054544  0.07509041    -0.07500
C658        C  0.58714962  0.49952483  0.08140574    -0.03500
C659        C  0.58412472  0.48764721  0.10544712    -0.08800
C660        C  0.60487986  0.48594257  0.12240043    -0.16500
H661        H  0.69906581  0.45316325  0.22019498     0.11700
H662        H  0.66813594  0.45611487  0.18495847     0.10900
H663        H  0.71274724  0.51673376  0.15069308     0.10900
H664        H  0.74363465  0.51428640  0.18637958     0.11400
H665        H  0.64992542  0.51725927  0.08676848     0.11500
H666        H  0.61379406  0.52004893  0.05679628     0.11400
H667        H  0.56603497  0.47888577  0.11072844     0.11600
H668        H  0.60246179  0.47611194  0.14057691     0.10400
C669        C  0.77884411  0.70419816  0.00481125    -0.03400
C670        C  0.79847470  0.70293742  0.02325799    -0.09200
C671        C  0.81569144  0.68243984  0.02325572    -0.16800
C672        C  0.81350979  0.66304370  0.00474577     0.25300
C673        C  0.79307734  0.66336369  0.98724700    -0.18500
C674        C  0.77570771  0.68387529  0.98731457    -0.07400
C675        C  0.83353442  0.64424489  0.00234699    -0.13800
C676        C  0.85121702  0.62955042  0.99999158    -0.13600
C677        C  0.87231957  0.61200714  0.99736430     0.25200
C678        C  0.89761013  0.62108653  0.99707647    -0.19000
C679        C  0.91809531  0.60377055  0.99561631    -0.07500
C680        C  0.91345391  0.57715639  0.99450013    -0.03500
C681        C  0.88787086  0.56836784  0.99412110    -0.08800
C682        C  0.86751028  0.58567719  0.99559233    -0.16500
H683        H  0.80136766  0.71861560  0.03669802     0.11700
H684        H  0.83144520  0.68239985  0.03684114     0.10900
H685        H  0.79133803  0.64846436  0.97276375     0.10900
H686        H  0.76110417  0.68480732  0.97254812     0.11400
H687        H  0.90149914  0.64150216  0.99832690     0.11500
H688        H  0.93749723  0.61119562  0.99579952     0.11400
H689        H  0.88348575  0.54805315  0.99308913     0.11600
H690        H  0.84800180  0.57848527  0.99568332     0.10400
C691        C  0.91778573  0.40884724  0.99138723    -0.03400
C692        C  0.89244699  0.41742896  0.98741057    -0.09200
C693        C  0.87219201  0.40009469  0.98580873    -0.16800
C694        C  0.87669380  0.37380289  0.98814277     0.25300
C695        C  0.90178627  0.36481961  0.99198752    -0.18500
C696        C  0.92229212  0.38226337  0.99357766    -0.07400
C697        C  0.85525393  0.35645105  0.98641897    -0.13800
C698        C  0.83639132  0.34316782  0.98446581    -0.13600
C699        C  0.81437581  0.32672522  0.98146279     0.25200
C700        C  0.80905419  0.31590603  0.95738885    -0.19000
C701        C  0.79032335  0.29686383  0.95505602    -0.07500
C702        C  0.77647836  0.28874965  0.97669455    -0.03500
C703        C  0.78051051  0.30095983  0.00044363    -0.08800
C704        C  0.79951390  0.31984333  0.00284184    -0.16500
H705        H  0.88810586  0.43767257  0.98544214     0.11700
H706        H  0.85292156  0.40726535  0.98274142     0.10900
H707        H  0.90547730  0.34441812  0.99376999     0.10900
H708        H  0.94151406  0.37500163  0.99662114     0.11400
H709        H  0.82033291  0.32115857  0.94070568     0.11500
H710        H  0.78764706  0.28738083  0.93668436     0.11400
H711        H  0.77036173  0.29453781  0.01743451     0.11600
H712        H  0.80347120  0.32810931  0.02156606     0.10400
C713        C  0.08693517  0.58207577  0.99681500    -0.03400
C714        C  0.08148804  0.60857281  0.99753145    -0.09200
C715        C  0.10150056  0.62654774  0.99876281    -0.16800
C716        C  0.12707728  0.61821089  0.99925783     0.25300
C717        C  0.13258858  0.59199911  0.99847587    -0.18500
C718        C  0.11277358  0.57409955  0.99722722    -0.07400
C719        C  0.14792041  0.63625241  0.00067851    -0.13800
C720        C  0.16594578  0.65067995  0.00209564    -0.13600
C721        C  0.18655531  0.66892641  0.00416316     0.25200
C722        C  0.18458447  0.68894335  0.02200586    -0.19000
C723        C  0.20267575  0.70865612  0.02210031    -0.07500
C724        C  0.22302264  0.70856534  0.00439623    -0.03500
C725        C  0.22586952  0.68763570  0.98753038    -0.08800
C726        C  0.20761693  0.66786406  0.98739227    -0.16500
H727        H  0.06186465  0.61538720  0.99727771     0.11700
H728        H  0.09704269  0.64687271  0.99939690     0.10900
H729        H  0.15228142  0.58534620  0.99888802     0.10900
H730        H  0.11782927  0.55392668  0.99673140     0.11400
H731        H  0.16843290  0.68991640  0.03509767     0.11500
H732        H  0.20007539  0.72470946  0.03514984     0.11400
H733        H  0.24111136  0.68744019  0.97337568     0.11600
H734        H  0.20930189  0.65241446  0.97348924     0.10400
C735        C  0.09124623  0.41265125  0.99554032    -0.03400
C736        C  0.08659506  0.38620480  0.99876516    -0.09200
C737        C  0.10707279  0.36883551  0.00011989    -0.16800
C738        C  0.13239695  0.37764710  0.99816713     0.25300
C739        C  0.13717589  0.40380803  0.99464312    -0.18500
C740        C  0.11681983  0.42117096  0.99330890    -0.07400
C741        C  0.15354561  0.35991749  0.99944496    -0.13800
C742        C  0.17114041  0.34489248  0.99998260    -0.13600
C743        C  0.19094562  0.32563315  0.00000896     0.25200
C744        C  0.21009647  0.32563205  0.98104902    -0.19000
C745        C  0.22740879  0.30510518  0.97933436    -0.07500
C746        C  0.22547805  0.28442325  0.99647988    -0.03500
C747        C  0.20691179  0.28507342  0.01602284    -0.08800
C748        C  0.18983151  0.30562795  0.01786511    -0.16500
H749        H  0.06720446  0.37896668  0.00055679     0.11700
H750        H  0.10316061  0.34856774  0.00276774     0.10900
H751        H  0.15667592  0.41082247  0.99298304     0.10900
H752        H  0.12120316  0.44132949  0.99067066     0.11400
H753        H  0.21101111  0.34095999  0.96702734     0.11500
H754        H  0.24127669  0.30466068  0.96382269     0.11400
H755        H  0.20502725  0.26913923  0.02925103     0.11600
H756        H  0.17509008  0.30538504  0.03255908     0.10400
C757        C  0.91761915  0.49442784  0.90927558    -0.03400
C758        C  0.92387016  0.49073617  0.88315861    -0.09200
C759        C  0.90462508  0.49033471  0.86435194    -0.16800
C760        C  0.87887639  0.49373581  0.87129495     0.25300
C761        C  0.87252177  0.49785935  0.89712651    -0.18500
C762        C  0.89168273  0.49818433  0.91595950    -0.07400
C763        C  0.85890712  0.49244537  0.85207745    -0.13800
C764        C  0.84200084  0.49093677  0.83623897    -0.13600
C765        C  0.82178821  0.48887944  0.81734851     0.25200
C766        C  0.80531477  0.46758987  0.81733908    -0.19000
C767        C  0.78597856  0.46541187  0.79877148    -0.07500
C768        C  0.78289270  0.48449363  0.77996623    -0.03500
C769        C  0.79926210  0.50595793  0.78029736    -0.08800
C770        C  0.81862180  0.50809441  0.79881552    -0.16500
H771        H  0.94358387  0.48782607  0.87726421     0.11700
H772        H  0.90981645  0.48714835  0.84442116     0.10900
H773        H  0.85269777  0.50060571  0.90276764     0.10900
H774        H  0.88612491  0.50132403  0.93578567     0.11400
H775        H  0.80755017  0.45257482  0.83154807     0.11500
H776        H  0.77371242  0.44862778  0.79874175     0.11400
H777        H  0.79707338  0.52099940  0.76613615     0.11600
H778        H  0.83117162  0.52468544  0.79862017     0.10400
C779        C  0.08917381  0.49955521  0.91057643    -0.03400
C780        C  0.11529969  0.50077919  0.91750142    -0.09200
C781        C  0.13452205  0.50091256  0.89863065    -0.16800
C782        C  0.12802840  0.49986525  0.87251207     0.25300
C783        C  0.10213016  0.49910522  0.86541654    -0.18500
C784        C  0.08287262  0.49897319  0.88422910    -0.07400
C785        C  0.14783519  0.49941964  0.85297674    -0.13800
C786        C  0.16414556  0.49923392  0.83638498    -0.13600
C787        C  0.18359609  0.49980616  0.81650505     0.25200
C788        C  0.18332176  0.48184151  0.79635894    -0.19000
C789        C  0.20212584  0.48268452  0.77706847    -0.07500
C790        C  0.22128500  0.50175579  0.77743197    -0.03500
C791        C  0.22123313  0.51980196  0.79763344    -0.08800
C792        C  0.20271192  0.51868884  0.81708965    -0.16500
H793        H  0.12095743  0.50139925  0.93752264     0.11700
H794        H  0.15446361  0.50164264  0.90444048     0.10900
H795        H  0.09679700  0.49842085  0.84529548     0.10900
H796        H  0.06304856  0.49816526  0.87808664     0.11400
H797        H  0.16863939  0.46712741  0.79560509     0.11500
H798        H  0.20181925  0.46831610  0.76199618     0.11400
H799        H  0.23539917  0.53498201  0.79822880     0.11600
H800        H  0.20314891  0.53276650  0.83246778     0.10400
C801        C  0.08725165  0.49434794  0.08260669    -0.03400
C802        C  0.08040753  0.49011306  0.10850098    -0.09200
C803        C  0.09916561  0.48942360  0.12781579    -0.16800
C804        C  0.12509211  0.49300578  0.12167860     0.25300
C805        C  0.13211038  0.49704164  0.09599603    -0.18500
C806        C  0.11341205  0.49766470  0.07663612    -0.07400
C807        C  0.14442515  0.49301041  0.14170563    -0.13800
C808        C  0.16069924  0.49352611  0.15832956    -0.13600
C809        C  0.18029830  0.49460948  0.17805649     0.25200
C810        C  0.19858802  0.47497196  0.18005105    -0.19000
C811        C  0.21775679  0.47622163  0.19889185    -0.07500
C812        C  0.21895218  0.49714789  0.21600779    -0.03500
C813        C  0.20051204  0.51673438  0.21400297    -0.08800
C814        C  0.18131916  0.51546130  0.19517006    -0.16500
H815        H  0.06054055  0.48729204  0.11388707     0.11700
H816        H  0.09340861  0.48623132  0.14757202     0.10900
H817        H  0.15206976  0.49985356  0.09091978     0.10900
H818        H  0.11946969  0.50094967  0.05700209     0.11400
H819        H  0.19807060  0.45871230  0.16701053     0.11500
H820        H  0.23163699  0.46081353  0.20022248     0.11400
H821        H  0.20118178  0.53311696  0.22685651     0.11600
H822        H  0.16736345  0.53082149  0.19386162     0.10400
C823        C  0.91686767  0.49321792  0.08157897    -0.03400
C824        C  0.92361711  0.49658285  0.10764432    -0.09200
C825        C  0.90494485  0.49558672  0.12704195    -0.16800
C826        C  0.87916718  0.49117364  0.12083634     0.25300
C827        C  0.87226065  0.48779232  0.09500078    -0.18500
C828        C  0.89088799  0.48885094  0.07554382    -0.07400
C829        C  0.85977539  0.49039791  0.14085795    -0.13800
C830        C  0.84326278  0.49003549  0.15729832    -0.13600
C831        C  0.82317197  0.48993360  0.17663623     0.25200
C832        C  0.82230421  0.50914737  0.19556849    -0.19000
C833        C  0.80270204  0.50924966  0.21405342    -0.07500
C834        C  0.78364974  0.49008787  0.21397864    -0.03500
C835        C  0.78461247  0.47088334  0.19492586    -0.08800
C836        C  0.80420434  0.47081752  0.17640989    -0.16500
H837        H  0.94335810  0.50004779  0.11311517     0.11700
H838        H  0.91064033  0.49829349  0.14689699     0.10900
H839        H  0.85241867  0.48435683  0.08986197     0.10900
H840        H  0.88493232  0.48607505  0.05579017     0.11400
H841        H  0.83673495  0.52412195  0.19599801     0.11500
H842        H  0.80228678  0.52440597  0.22834033     0.11400
H843        H  0.77035985  0.45576432  0.19459476     0.11600
H844        H  0.80457377  0.45581578  0.16193347     0.10400
C845        C  0.49244207  0.27241590  0.78710802    -0.03400
C846        C  0.50945582  0.29325222  0.78502897    -0.09200
C847        C  0.51290732  0.31020512  0.80551736    -0.16800
C848        C  0.49940607  0.30661645  0.82842800     0.25300
C849        C  0.48327431  0.28519977  0.83118080    -0.18500
C850        C  0.47980866  0.26809097  0.81056527    -0.07400
C851        C  0.50063534  0.32623238  0.84796264    -0.13800
C852        C  0.50117469  0.34418030  0.86267598    -0.13600
C853        C  0.50089773  0.36604272  0.87970663     0.25200
C854        C  0.49222316  0.36308988  0.90492255    -0.19000
C855        C  0.49167398  0.38413572  0.92156392    -0.07500
C856        C  0.49979777  0.40859513  0.91326932    -0.03500
C857        C  0.50811816  0.41155122  0.88773559    -0.08800
C858        C  0.50874967  0.39032344  0.87107152    -0.16500
H859        H  0.51931273  0.29701652  0.76708578     0.11700
H860        H  0.52534995  0.32670799  0.80311394     0.10900
H861        H  0.47260468  0.28233366  0.84882147     0.10900
H862        H  0.46622167  0.25247171  0.81244784     0.11400
H863        H  0.48591010  0.34448244  0.91176393     0.11500
H864        H  0.48488939  0.38119373  0.94102533     0.11400
H865        H  0.51458282  0.43006844  0.88083869     0.11600
H866        H  0.51541707  0.39282158  0.85150480     0.10400
C867        C  0.48222234  0.71811644  0.78620209    -0.03400
C868        C  0.50318518  0.71874330  0.80311147    -0.09200
C869        C  0.50454728  0.70131808  0.82348935    -0.16800
C870        C  0.48487895  0.68334635  0.82714508     0.25300
C871        C  0.46334452  0.68358451  0.81112981    -0.18500
C872        C  0.46207424  0.70080681  0.79066722    -0.07400
C873        C  0.48758615  0.66333860  0.84590004    -0.13800
C874        C  0.48983247  0.64561691  0.86055205    -0.13600
C875        C  0.49252100  0.62444258  0.87799075     0.25200
C876        C  0.49871922  0.62923498  0.90365551    -0.19000
C877        C  0.50100305  0.60889739  0.92086828    -0.07500
C878        C  0.49713924  0.58333675  0.91267102    -0.03500
C879        C  0.49116686  0.57864329  0.88671380    -0.08800
C880        C  0.48883188  0.59913672  0.86947699    -0.16500
H881        H  0.51913574  0.73161673  0.79965681     0.11700
H882        H  0.52135794  0.70117984  0.83572457     0.10900
H883        H  0.44804421  0.66975245  0.81380354     0.10900
H884        H  0.44584053  0.69997548  0.77769949     0.11400
H885        H  0.50166550  0.64872905  0.91041672     0.11500
H886        H  0.50574010  0.61328734  0.94067079     0.11400
H887        H  0.48793530  0.55925425  0.87983581     0.11600
H888        H  0.48400446  0.59527106  0.84958048     0.10400
C889        C  0.51044130  0.71843089  0.20704104    -0.03400
C890        C  0.52889965  0.69878845  0.20730504    -0.09200
C891        C  0.53107495  0.68193414  0.18657382    -0.16800
C892        C  0.51478284  0.68455686  0.16543287     0.25300
C893        C  0.49723648  0.70490868  0.16441362    -0.18500
C894        C  0.49505747  0.72185382  0.18519416    -0.07400
C895        C  0.51414400  0.66472929  0.14631531    -0.13800
C896        C  0.51226173  0.64695964  0.13164831    -0.13600
C897        C  0.50895087  0.62569038  0.11444275     0.25200
C898        C  0.50657659  0.63027736  0.08816239    -0.19000
C899        C  0.50347266  0.60978519  0.07121033    -0.07500
C900        C  0.50281438  0.58426270  0.08028874    -0.03500
C901        C  0.50472861  0.57985806  0.10687692    -0.08800
C902        C  0.50778565  0.60052754  0.12387190    -0.16500
H903        H  0.54082820  0.69580148  0.22408339     0.11700
H904        H  0.54459938  0.66615568  0.18756659     0.10900
H905        H  0.48440552  0.70689843  0.14816137     0.10900
H906        H  0.48034237  0.73653148  0.18486156     0.11400
H907        H  0.50727731  0.64970355  0.08073442     0.11500
H908        H  0.50196227  0.61404026  0.05089858     0.11400
H909        H  0.50422493  0.56052169  0.11448764     0.11600
H910        H  0.50942832  0.59688928  0.14430547     0.10400
C911        C  0.51072309  0.27272598  0.20666749    -0.03400
C912        C  0.49055819  0.27210966  0.18882262    -0.09200
C913        C  0.48967957  0.29004503  0.16882987    -0.16800
C914        C  0.50904929  0.30856359  0.16643720     0.25300
C915        C  0.52980304  0.30845221  0.18348209    -0.18500
C916        C  0.53058517  0.29070284  0.20355641    -0.07400
C917        C  0.50697017  0.32864525  0.14757287    -0.13800
C918        C  0.50547782  0.34624529  0.13261359    -0.13600
C919        C  0.50426875  0.36745396  0.11494104     0.25200
C920        C  0.49652993  0.39185865  0.12339094    -0.19000
C921        C  0.49583011  0.41253898  0.10620235    -0.07500
C922        C  0.50272834  0.40894899  0.08031174    -0.03500
C923        C  0.51044353  0.38427462  0.07207622    -0.08800
C924        C  0.51123864  0.36375360  0.08926329    -0.16500
H925        H  0.47474085  0.25885175  0.19129015     0.11700
H926        H  0.47344874  0.29006727  0.15583600     0.10900
H927        H  0.54486855  0.32270318  0.18185370     0.10900
H928        H  0.54612003  0.29169481  0.21735125     0.11400
H929        H  0.49109090  0.39490906  0.14327220     0.11500
H930        H  0.48967922  0.43120316  0.11308512     0.11400
H931        H  0.51607365  0.38079466  0.05231932     0.11600
H932        H  0.51735619  0.34500686  0.08251781     0.10400
C933        C  0.58520016  0.08304238  0.99707524    -0.03400
C934        C  0.57625991  0.10834874  0.00094714    -0.09200
C935        C  0.59303006  0.12918684  0.99983280    -0.16800
C936        C  0.61903872  0.12519675  0.99487904     0.25300
C937        C  0.62831927  0.10012803  0.99140606    -0.18500
C938        C  0.61151446  0.07912742  0.99254100    -0.07400
C939        C  0.63610741  0.14689591  0.99348609    -0.13800
C940        C  0.65090505  0.16468850  0.99269345    -0.13600
C941        C  0.67063614  0.18403107  0.99231235     0.25200
C942        C  0.69372673  0.17910699  0.00496345    -0.19000
C943        C  0.71411065  0.19627449  0.00284359    -0.07500
C944        C  0.71176278  0.21869476  0.98803063    -0.03500
C945        C  0.68820116  0.22414476  0.97611934    -0.08800
C946        C  0.66766607  0.20683905  0.97828801    -0.16500
H947        H  0.55618394  0.11217616  0.00469720     0.11700
H948        H  0.58565341  0.14845012  0.00270430     0.10900
H949        H  0.64849803  0.09683608  0.98765504     0.10900
H950        H  0.61902242  0.05996372  0.98946672     0.11400
H951        H  0.69626895  0.16155041  0.01582662     0.11500
H952        H  0.73211151  0.19159923  0.01211393     0.11400
H953        H  0.68609349  0.24098575  0.96413375     0.11600
H954        H  0.64986105  0.21078716  0.96832815     0.10400
C955        C  0.29229737  0.77278481  0.98801574    -0.03400
C956        C  0.31096999  0.77125374  0.00736103    -0.09200
C957        C  0.33230935  0.78752758  0.00673057    -0.16800
C958        C  0.33513311  0.80523617  0.98668650     0.25300
C959        C  0.31733049  0.80571387  0.96658591    -0.18500
C960        C  0.29590964  0.78966488  0.96733168    -0.07400
C961        C  0.35442866  0.82486129  0.98822214    -0.13800
C962        C  0.36903495  0.84265673  0.99033740    -0.13600
C963        C  0.38593423  0.86427666  0.99316470     0.25200
C964        C  0.37662944  0.88938378  0.99040847    -0.19000
C965        C  0.39340225  0.91033670  0.99219862    -0.07500
C966        C  0.41968752  0.90632048  0.99672421    -0.03500
C967        C  0.42860499  0.88095863  0.00014330    -0.08800
C968        C  0.41185654  0.86015715  0.99836614    -0.16500
H969        H  0.30823709  0.75867265  0.02368906     0.11700
H970        H  0.34590933  0.78717179  0.02246844     0.10900
H971        H  0.31930769  0.81938693  0.95103516     0.10900
H972        H  0.28157720  0.79115869  0.95233631     0.11400
H973        H  0.35649278  0.89273481  0.98652436     0.11500
H974        H  0.38590878  0.92954665  0.98952410     0.11400
H975        H  0.44865637  0.87705560  0.00390132     0.11600
H976        H  0.41920907  0.84082918  0.00072713     0.10400
C977        C  0.58711209  0.90835638  0.99274315    -0.03400
C978        C  0.61336419  0.91308322  0.99685901    -0.09200
C979        C  0.63113561  0.89293128  0.99549987    -0.16800
C980        C  0.62289014  0.86790265  0.98990962     0.25300
C981        C  0.59690805  0.86308264  0.98555201    -0.18500
C982        C  0.57915112  0.88308713  0.98697933    -0.07400
C983        C  0.64093334  0.84703941  0.98868426    -0.13800
C984        C  0.65591370  0.82944848  0.98752950    -0.13600
C985        C  0.67480218  0.80938403  0.98606815     0.25200
C986        C  0.67432422  0.78886557  0.00345592    -0.19000
C987        C  0.69436717  0.77097475  0.00370198    -0.07500
C988        C  0.71496688  0.77348496  0.98647624    -0.03500
C989        C  0.71463627  0.79344965  0.96833289    -0.08800
C990        C  0.69469278  0.81129180  0.96815359    -0.16500
H991        H  0.62012639  0.93224897  0.00134469     0.11700
H992        H  0.65126505  0.89685161  0.99887799     0.10900
H993        H  0.59034083  0.84381683  0.98111212     0.10900
H994        H  0.55915066  0.87869812  0.98346575     0.11400
H995        H  0.65902885  0.78729317  0.01747235     0.11500
H996        H  0.69449351  0.75620158  0.01830809     0.11400
H997        H  0.73038528  0.79583930  0.95495192     0.11600
H998        H  0.69525682  0.82708680  0.95463261     0.10400
C999        C  0.41801085  0.08144002  0.99530139    -0.03400
C1000       C  0.42651177  0.10675499  0.00000154    -0.09200
C1001       C  0.40959744  0.12740297  0.99853557    -0.16800
C1002       C  0.38389474  0.12320248  0.99240158     0.25300
C1003       C  0.37501813  0.09811426  0.98810388    -0.18500
C1004       C  0.39198201  0.07728068  0.98960244    -0.07400
C1005       C  0.36690408  0.14482265  0.99013971    -0.13800
C1006       C  0.35277737  0.16299948  0.98794380    -0.13600
C1007       C  0.33443423  0.18336524  0.98480006     0.25200
C1008       C  0.31729645  0.18232573  0.96417651    -0.19000
C1009       C  0.29706769  0.19977786  0.96277436    -0.07500
C1010       C  0.29380180  0.21857484  0.98191295    -0.03500
C1011       C  0.31195307  0.22059788  0.00176365    -0.08800
C1012       C  0.33220062  0.20295412  0.00323625    -0.16500
H1013       H  0.44636228  0.11074090  0.00467397     0.11700
H1014       H  0.41664692  0.14669997  0.00196975     0.10900
H1015       H  0.35507917  0.09469663  0.98334388     0.10900
H1016       H  0.38486924  0.05808603  0.98584197     0.11400
H1017       H  0.31885242  0.16727422  0.94981948     0.11500
H1018       H  0.28316492  0.19781018  0.94742279     0.11400
H1019       H  0.30949256  0.23461168  0.01699862     0.11600
H1020       H  0.34535691  0.20385930  0.01933045     0.10400
C1021       C  0.48636983  0.21275566  0.77923521    -0.03400
C1022       C  0.50828722  0.21198683  0.79493835    -0.09200
C1023       C  0.51116521  0.19255013  0.81335193    -0.16800
C1024       C  0.49214230  0.17370829  0.81628755     0.25300
C1025       C  0.47033171  0.17438860  0.80060559    -0.18500
C1026       C  0.46748419  0.19373053  0.78220342    -0.07400
C1027       C  0.49461690  0.15388771  0.83556998    -0.13800
C1028       C  0.49572312  0.13732228  0.85181230    -0.13600
C1029       C  0.49653463  0.11778706  0.87152407     0.25200
C1030       C  0.50358714  0.09254254  0.86535492    -0.19000
C1031       C  0.50464964  0.07372470  0.88453265    -0.07500
C1032       C  0.49877977  0.07987958  0.91027233    -0.03500
C1033       C  0.49153363  0.10527941  0.91624692    -0.08800
C1034       C  0.49034670  0.12402465  0.89700171    -0.16500
H1035       H  0.52319805  0.22629354  0.79276640     0.11700
H1036       H  0.52816557  0.19225304  0.82531327     0.10900
H1037       H  0.45544669  0.16001316  0.80267905     0.10900
H1038       H  0.45041109  0.19404164  0.77037060     0.11400
H1039       H  0.50836474  0.08740499  0.84572640     0.11500
H1040       H  0.51032472  0.05440733  0.87922417     0.11400
H1041       H  0.48663200  0.11065819  0.93577115     0.11600
H1042       H  0.48469787  0.14343422  0.90202730     0.10400
C1043       C  0.50188693  0.90862782  0.91097569    -0.03400
C1044       C  0.49935030  0.91525187  0.88484576    -0.09200
C1045       C  0.49854824  0.89621176  0.86582047    -0.16800
C1046       C  0.50032007  0.87025744  0.87253167     0.25300
C1047       C  0.50273008  0.86341321  0.89843371    -0.18500
C1048       C  0.50350287  0.88241996  0.91752787    -0.07400
C1049       C  0.49968258  0.85069467  0.85283586    -0.13800
C1050       C  0.49889845  0.83431711  0.83635801    -0.13600
C1051       C  0.49716491  0.81458263  0.81690645     0.25200
C1052       C  0.47705499  0.79679609  0.81771700    -0.19000
C1053       C  0.47488656  0.77792100  0.79867749    -0.07500
C1054       C  0.49289301  0.77643641  0.77860066    -0.03500
C1055       C  0.51325085  0.79416305  0.77805692    -0.08800
C1056       C  0.51530853  0.81319429  0.79705251    -0.16500
H1057       H  0.49789092  0.93516238  0.87904311     0.11700
H1058       H  0.49657537  0.90175470  0.84585327     0.10900
H1059       H  0.50404852  0.84337665  0.90387995     0.10900
H1060       H  0.50541153  0.87655753  0.93739525     0.11400
H1061       H  0.46288227  0.79767407  0.83294015     0.11500
H1062       H  0.45886931  0.76471180  0.79935620     0.11400
H1063       H  0.52754152  0.79322778  0.76298053     0.11600
H1064       H  0.53099829  0.82681949  0.79623742     0.10400
C1065       C  0.50167815  0.77741006  0.21436263    -0.03400
C1066       C  0.52217202  0.77829639  0.19679902    -0.09200
C1067       C  0.52301416  0.79726252  0.17775218    -0.16800
C1068       C  0.50346984  0.81567317  0.17611570     0.25300
C1069       C  0.48303013  0.81492093  0.19358436    -0.18500
C1070       C  0.48211665  0.79591130  0.21253961    -0.07400
C1071       C  0.50435010  0.83535774  0.15660695    -0.13800
C1072       C  0.50472171  0.85192066  0.14036073    -0.13600
C1073       C  0.50468461  0.87161340  0.12084482     0.25200
C1074       C  0.50660319  0.89757852  0.12773537    -0.19000
C1075       C  0.50606943  0.91666814  0.10880178    -0.07500
C1076       C  0.50363893  0.91005270  0.08261387    -0.03500
C1077       C  0.50186818  0.88385795  0.07592971    -0.08800
C1078       C  0.50237123  0.86484294  0.09488972    -0.16500
H1079       H  0.53759501  0.76443186  0.19797904     0.11700
H1080       H  0.53895147  0.79763026  0.16438094     0.10900
H1081       H  0.46775771  0.82899514  0.19251852     0.10900
H1082       H  0.46601307  0.79546659  0.22567832     0.11400
H1083       H  0.50842145  0.90308531  0.14775802     0.11500
H1084       H  0.50759519  0.93658025  0.11470262     0.11400
H1085       H  0.49997573  0.87799105  0.05603019     0.11600
H1086       H  0.50085419  0.84483371  0.08928718     0.10400
C1087       C  0.50054578  0.08138186  0.08137442    -0.03400
C1088       C  0.48792598  0.10481217  0.07664058    -0.09200
C1089       C  0.48648046  0.12377161  0.09578874    -0.16800
C1090       C  0.49787339  0.11974693  0.11984534     0.25300
C1091       C  0.51073480  0.09659163  0.12458088    -0.18500
C1092       C  0.51193728  0.07748775  0.10557044    -0.07400
C1093       C  0.49666717  0.13941420  0.13956124    -0.13800
C1094       C  0.49645349  0.15587138  0.15606946    -0.13600
C1095       C  0.49748418  0.17568884  0.17564400     0.25200
C1096       C  0.51740344  0.19375192  0.17539585    -0.19000
C1097       C  0.51892134  0.21266217  0.19454521    -0.07500
C1098       C  0.50045104  0.21392451  0.21423314    -0.03500
C1099       C  0.48035216  0.19586757  0.21424555    -0.08800
C1100       C  0.47893343  0.17683844  0.19514574    -0.16500
H1101       H  0.47880398  0.10830002  0.05827012     0.11700
H1102       H  0.47647628  0.14156808  0.09181769     0.10900
H1103       H  0.51979366  0.09326385  0.14301505     0.10900
H1104       H  0.52196155  0.05974744  0.10971207     0.11400
H1105       H  0.53192111  0.19308840  0.16049388     0.11500
H1106       H  0.53474836  0.22611277  0.19420433     0.11400
H1107       H  0.46566514  0.19660355  0.22894125     0.11600
H1108       H  0.46338195  0.16303998  0.19560189     0.10400
C1109       C  0.29100601  0.98449698  0.21800705    -0.03400
C1110       C  0.29065517  0.96754992  0.19690583    -0.09200
C1111       C  0.31114496  0.96666041  0.17972289    -0.16800
C1112       C  0.33239153  0.98256147  0.18346305     0.25300
C1113       C  0.33367006  0.99844157  0.20525322    -0.18500
C1114       C  0.31299483  0.99948529  0.22246805    -0.07400
C1115       C  0.35153267  0.98413899  0.16363799    -0.13800
C1116       C  0.36620180  0.98599234  0.14583903    -0.13600
C1117       C  0.38358159  0.98874708  0.12456866     0.25200
C1118       C  0.40867921  0.99692002  0.12911563    -0.19000
C1119       C  0.42591983  0.99915513  0.10874448    -0.07500
C1120       C  0.41829522  0.99325071  0.08341804    -0.03500
C1121       C  0.39281071  0.98560933  0.07890420    -0.08800
C1122       C  0.37556640  0.98329856  0.09941898    -0.16500
H1123       H  0.27394154  0.95579172  0.19305051     0.11700
H1124       H  0.30993082  0.95434090  0.16293228     0.10900
H1125       H  0.35005462  0.01089785  0.20824935     0.10900
H1126       H  0.31357903  0.01310826  0.23821768     0.11400
H1127       H  0.41500577  0.00135750  0.14846917     0.11500
H1128       H  0.44531796  0.00533038  0.11291558     0.11400
H1129       H  0.38637670  0.98088137  0.05966975     0.11600
H1130       H  0.35609313  0.97704363  0.09570513     0.10400
C1131       C  0.71125800  0.98768809  0.77248254    -0.03400
C1132       C  0.69159563  0.00598127  0.77045583    -0.09200
C1133       C  0.67143019  0.00603991  0.78822232    -0.16800
C1134       C  0.67082103  0.98773323  0.80792777     0.25300
C1135       C  0.68960868  0.96862373  0.80906695    -0.18500
C1136       C  0.70976449  0.96862854  0.79146372    -0.07400
C1137       C  0.65223804  0.98955028  0.82820437    -0.13800
C1138       C  0.63778968  0.99094864  0.84619967    -0.13600
C1139       C  0.62051623  0.99260976  0.86762985     0.25200
C1140       C  0.62889468  0.98676245  0.89253397    -0.19000
C1141       C  0.61175043  0.98802681  0.91323103    -0.07500
C1142       C  0.58602343  0.99499591  0.90910673    -0.03500
C1143       C  0.57799625  0.00115921  0.88399832    -0.08800
C1144       C  0.59512382  0.99996316  0.86346001    -0.16500
H1145       H  0.69270623  0.02112456  0.75625875     0.11700
H1146       H  0.65698335  0.02096893  0.78727338     0.10900
H1147       H  0.68929331  0.95439962  0.82424141     0.10900
H1148       H  0.72488150  0.95448091  0.79338784     0.11400
H1149       H  0.64858734  0.98104688  0.89590901     0.11500
H1150       H  0.61846862  0.98307979  0.93228364     0.11400
H1151       H  0.55838580  0.00681991  0.88013388     0.11600
H1152       H  0.58849976  0.00461211  0.84428095     0.10400
C1153       C  0.41771975  0.99377455  0.90917616    -0.03400
C1154       C  0.39116660  0.99398091  0.91417856    -0.09200
C1155       C  0.37351470  0.99340812  0.89384530    -0.16800
C1156       C  0.38217656  0.99263700  0.86832328     0.25300
C1157       C  0.40845970  0.99241850  0.86320730    -0.18500
C1158       C  0.42607248  0.99300248  0.88338398    -0.07400
C1159       C  0.36428917  0.99210049  0.84724132    -0.13800
C1160       C  0.34938155  0.99154911  0.82952571    -0.13600
C1161       C  0.33011808  0.99052559  0.80974069     0.25200
C1162       C  0.32941316  0.00897519  0.79012671    -0.19000
C1163       C  0.30873662  0.00955667  0.77290971    -0.07500
C1164       C  0.28865272  0.99175802  0.77538406    -0.03500
C1165       C  0.29012626  0.97268753  0.79435720    -0.08800
C1166       C  0.31077782  0.97200723  0.81134209    -0.16500
H1167       H  0.38403706  0.99456292  0.93373078     0.11700
H1168       H  0.35315193  0.99356814  0.89802323     0.10900
H1169       H  0.41538075  0.99179931  0.84356275     0.10900
H1170       H  0.44630129  0.99278361  0.87866628     0.11400
H1171       H  0.34426479  0.02346978  0.78878459     0.11500
H1172       H  0.30769225  0.02471280  0.75872040     0.11400
H1173       H  0.27472956  0.95889906  0.79664668     0.11600
H1174       H  0.31111304  0.95766542  0.82640187     0.10400
C1175       C  0.49703372  0.07903607  0.40933921    -0.03400
C1176       C  0.49808377  0.07039872  0.38361332    -0.09200
C1177       C  0.49662233  0.08772844  0.36323988    -0.16800
C1178       C  0.49410673  0.11400757  0.36809453     0.25300
C1179       C  0.49317613  0.12292899  0.39354547    -0.18500
C1180       C  0.49464820  0.10556984  0.41406729    -0.07400
C1181       C  0.49260339  0.13167170  0.34685587    -0.13800
C1182       C  0.49159076  0.14644627  0.32904093    -0.13600
C1183       C  0.49075357  0.16534924  0.30887021     0.25200
C1184       C  0.50863912  0.16474388  0.28871112    -0.19000
C1185       C  0.50983683  0.18504879  0.27110398    -0.07500
C1186       C  0.49322573  0.20612294  0.27367722    -0.03500
C1187       C  0.47449322  0.20591247  0.29310809    -0.08800
C1188       C  0.47322033  0.18561799  0.31054614    -0.16500
H1189       H  0.49996194  0.05016202  0.37909831     0.11700
H1190       H  0.49741693  0.08059116  0.34366017     0.10900
H1191       H  0.49126169  0.14328267  0.39752610     0.10900
H1192       H  0.49375774  0.11289637  0.43355321     0.11400
H1193       H  0.52236334  0.14917730  0.28728060     0.11500
H1194       H  0.52473724  0.18508812  0.25658525     0.11400
H1195       H  0.46163989  0.22210001  0.29551999     0.11600
H1196       H  0.45930940  0.18631387  0.32602258     0.10400
C1197       C  0.50050899  0.91122746  0.40931826    -0.03400
C1198       C  0.50206585  0.88457631  0.41348282    -0.09200
C1199       C  0.50152039  0.86751638  0.39260398    -0.16800
C1200       C  0.49940233  0.87694321  0.36747381     0.25300
C1201       C  0.49796708  0.90332714  0.36318927    -0.18500
C1202       C  0.49852725  0.92033085  0.38387112    -0.07400
C1203       C  0.49812019  0.85971141  0.34595364    -0.13800
C1204       C  0.49638087  0.84535282  0.32788653    -0.13600
C1205       C  0.49374535  0.82675062  0.30768724     0.25200
C1206       C  0.51232148  0.82480872  0.28830667    -0.19000
C1207       C  0.51144984  0.80436385  0.27082737    -0.07500
C1208       C  0.49205282  0.78576392  0.27280984    -0.03500
C1209       C  0.47276222  0.78864851  0.29141428    -0.08800
C1210       C  0.47356962  0.80910121  0.30872891    -0.16500
H1211       H  0.50362448  0.87693996  0.43276384     0.11700
H1212       H  0.50259722  0.84702334  0.39604858     0.10900
H1213       H  0.49625144  0.91078716  0.34383024     0.10900
H1214       H  0.49721687  0.94068089  0.37980052     0.11400
H1215       H  0.52807093  0.83836259  0.28745201     0.11500
H1216       H  0.52680003  0.80214521  0.25695718     0.11400
H1217       H  0.45777740  0.77435358  0.29330860     0.11600
H1218       H  0.45913085  0.81046527  0.32366847     0.10400
C1219       C  0.49708554  0.07931417  0.58434033    -0.03400
C1220       C  0.49778140  0.07042831  0.60994604    -0.09200
C1221       C  0.49526755  0.08745152  0.63053494    -0.16800
C1222       C  0.49209993  0.11367399  0.62601197     0.25300
C1223       C  0.49193444  0.12291387  0.60071312    -0.18500
C1224       C  0.49442681  0.10584640  0.57995550    -0.07400
C1225       C  0.48843624  0.13088339  0.64740316    -0.13800
C1226       C  0.48498938  0.14534326  0.66522144    -0.13600
C1227       C  0.48075573  0.16392833  0.68531065     0.25200
C1228       C  0.49818394  0.16633188  0.70567622    -0.19000
C1229       C  0.49573491  0.18656667  0.72331142    -0.07500
C1230       C  0.47578695  0.20452960  0.72069697    -0.03500
C1231       C  0.45767697  0.20116946  0.70095530    -0.08800
C1232       C  0.46014951  0.18100280  0.68338728    -0.16500
H1233       H  0.49991297  0.05018698  0.61420638     0.11700
H1234       H  0.49548649  0.08008638  0.65000435     0.10900
H1235       H  0.48954524  0.14325151  0.59703146     0.10900
H1236       H  0.49385966  0.11335416  0.56056965     0.11400
H1237       H  0.51428417  0.15327267  0.70725612     0.11500
H1238       H  0.51033635  0.18907616  0.73788853     0.11400
H1239       H  0.44223543  0.21486053  0.69845095     0.11600
H1240       H  0.44657300  0.17935359  0.66769978     0.10400
C1241       C  0.49914649  0.91176258  0.58442475    -0.03400
C1242       C  0.49477319  0.92057425  0.60973113    -0.09200
C1243       C  0.49447361  0.90349816  0.63029971    -0.16800
C1244       C  0.49857044  0.87735185  0.62602593     0.25300
C1245       C  0.50279534  0.86823298  0.60098906    -0.18500
C1246       C  0.50305359  0.88534396  0.58024639    -0.07400
C1247       C  0.49878045  0.86008001  0.64750374    -0.13800
C1248       C  0.49926760  0.84550377  0.66542359    -0.13600
C1249       C  0.50013418  0.82640389  0.68526063     0.25200
C1250       C  0.51703295  0.80572033  0.68262561    -0.19000
C1251       C  0.51558242  0.78506364  0.69954412    -0.07500
C1252       C  0.49733966  0.78498097  0.71938581    -0.03500
C1253       C  0.48147605  0.80647497  0.72300988    -0.08800
C1254       C  0.48281999  0.82714573  0.70588989    -0.16500
H1255       H  0.49152718  0.94074098  0.61375753     0.11700
H1256       H  0.49115669  0.91073143  0.64957905     0.10900
H1257       H  0.50601236  0.84794959  0.59752992     0.10900
H1258       H  0.50651189  0.87795666  0.56107137     0.11400
H1259       H  0.53049577  0.80498966  0.66675541     0.11500
H1260       H  0.52785932  0.76854988  0.69642096     0.11400
H1261       H  0.46701441  0.80652579  0.73797060     0.11600
H1262       H  0.46961651  0.84308307  0.70803326     0.10400
C1263       C  0.28339644  0.99340836  0.27742806    -0.03400
C1264       C  0.30153132  0.97350837  0.27898012    -0.09200
C1265       C  0.32082412  0.97418440  0.29770452    -0.16800
C1266       C  0.32218364  0.99471638  0.31515128     0.25300
C1267       C  0.30401674  0.01450358  0.31383158    -0.18500
C1268       C  0.28475262  0.01385228  0.29510181    -0.07400
C1269       C  0.34207242  0.99537800  0.33448300    -0.13800
C1270       C  0.35849175  0.99566322  0.35089308    -0.13600
C1271       C  0.37770490  0.99561947  0.37090823     0.25200
C1272       C  0.37033887  0.99353584  0.39671631    -0.19000
C1273       C  0.38885671  0.99327729  0.41620936    -0.07500
C1274       C  0.41513072  0.99507071  0.41019559    -0.03500
C1275       C  0.42233767  0.99716172  0.38412922    -0.08800
C1276       C  0.40376926  0.99744593  0.36468567    -0.16500
H1277       H  0.30067395  0.95746029  0.26572431     0.11700
H1278       H  0.33467197  0.95869347  0.29858051     0.10900
H1279       H  0.30479425  0.03047849  0.32721150     0.10900
H1280       H  0.27106536  0.02946189  0.29414505     0.11400
H1281       H  0.35023576  0.99207109  0.40179278     0.11500
H1282       H  0.38256043  0.99161383  0.43597659     0.11400
H1283       H  0.44233850  0.99862637  0.37869256     0.11600
H1284       H  0.40976023  0.99905504  0.34480089     0.10400
C1285       C  0.58490596  0.99800901  0.58252761    -0.03400
C1286       C  0.57800534  0.99936494  0.60870833    -0.09200
C1287       C  0.59682776  0.00021637  0.62788786    -0.16800
C1288       C  0.62285994  0.99972717  0.62129204     0.25300
C1289       C  0.62995580  0.99853293  0.59533912    -0.18500
C1290       C  0.61117398  0.99768751  0.57610293    -0.07400
C1291       C  0.64227099  0.99993715  0.64112195    -0.13800
C1292       C  0.65873133  0.99953194  0.65749044    -0.13600
C1293       C  0.67876117  0.99848424  0.67666010     0.25200
C1294       C  0.67940297  0.97836280  0.69450405    -0.19000
C1295       C  0.69908934  0.97708332  0.71277631    -0.07500
C1296       C  0.71835938  0.99596918  0.71349454    -0.03500
C1297       C  0.71762233  0.01605911  0.69549776    -0.08800
C1298       C  0.69795667  0.01731345  0.67722453    -0.16500
H1299       H  0.55803893  0.99971843  0.61444340     0.11700
H1300       H  0.59105267  0.00112620  0.64788533     0.10900
H1301       H  0.65003319  0.99812178  0.58995857     0.10900
H1302       H  0.61726831  0.99669085  0.55621722     0.11400
H1303       H  0.66474782  0.96360508  0.69422686     0.11500
H1304       H  0.69938991  0.96129549  0.72627518     0.11400
H1305       H  0.73209334  0.03097067  0.69585762     0.11600
H1306       H  0.69771881  0.03297820  0.66355172     0.10400
C1307       C  0.41383422  0.99341564  0.58316419    -0.03400
C1308       C  0.38794137  0.99804975  0.57689470    -0.09200
C1309       C  0.36896633  0.99863154  0.59605088    -0.16800
C1310       C  0.37537741  0.99445858  0.62187365     0.25300
C1311       C  0.40101964  0.98946410  0.62829417    -0.18500
C1312       C  0.42007242  0.98899257  0.60917450    -0.07400
C1313       C  0.35571190  0.99549662  0.64169849    -0.13800
C1314       C  0.33921821  0.99639139  0.65818311    -0.13600
C1315       C  0.31949374  0.99713519  0.67794211     0.25200
C1316       C  0.31705274  0.97679835  0.69542120    -0.19000
C1317       C  0.29802016  0.97738189  0.71448137    -0.07500
C1318       C  0.28098188  0.99821654  0.71624581    -0.03500
C1319       C  0.28338915  0.01854373  0.69867606    -0.08800
C1320       C  0.30258823  0.01806482  0.67973507    -0.16500
H1321       H  0.38233455  0.00158485  0.55717785     0.11700
H1322       H  0.34926448  0.00249251  0.59069618     0.10900
H1323       H  0.40634215  0.98608118  0.64813170     0.10900
H1324       H  0.43970103  0.98518617  0.61479767     0.11400
H1325       H  0.32985648  0.96044291  0.69430097     0.11500
H1326       H  0.29633748  0.96143953  0.72770239     0.11400
H1327       H  0.27051352  0.03483236  0.69980729     0.11600
H1328       H  0.30419554  0.03397961  0.66645282     0.10400
C1329       C  0.58591410  0.99650010  0.08392044    -0.03400
C1330       C  0.57699720  0.99644439  0.10955001    -0.09200
C1331       C  0.59413753  0.99726031  0.13006481    -0.16800
C1332       C  0.62047096  0.99809580  0.12542479     0.25300
C1333       C  0.62969130  0.99807914  0.10010262    -0.18500
C1334       C  0.61250995  0.99724543  0.07941590    -0.07400
C1335       C  0.63782682  0.99996675  0.14676105    -0.13800
C1336       C  0.65226412  0.00304617  0.16454589    -0.13600
C1337       C  0.67068642  0.00884166  0.18420661     0.25200
C1338       C  0.67277711  0.99358849  0.20626231    -0.19000
C1339       C  0.69249221  0.99821134  0.22395888    -0.07500
C1340       C  0.71007131  0.01826462  0.21973890    -0.03500
C1341       C  0.70691720  0.03418509  0.19819467    -0.08800
C1342       C  0.68745207  0.02942072  0.18051111    -0.16500
H1343       H  0.55668885  0.99590422  0.11389383     0.11700
H1344       H  0.58681442  0.99743950  0.14957399     0.10900
H1345       H  0.65011973  0.99890579  0.09635975     0.10900
H1346       H  0.62001377  0.99736421  0.05999994     0.11400
H1347       H  0.65985221  0.97757039  0.20924913     0.11500
H1348       H  0.69486122  0.98517371  0.23994954     0.11400
H1349       H  0.72024475  0.04969838  0.19444622     0.11600
H1350       H  0.68596416  0.04134018  0.16352330     0.10400
C1351       C  0.58507752  0.99611220  0.41053288    -0.03400
C1352       C  0.57832749  0.99497142  0.38429243    -0.09200
C1353       C  0.59722242  0.99568191  0.36510499    -0.16800
C1354       C  0.62319953  0.99757468  0.37172562     0.25300
C1355       C  0.63012685  0.99847598  0.39773662    -0.18500
C1356       C  0.61128322  0.99774195  0.41696653    -0.07400
C1357       C  0.64268898  0.99922622  0.35191057    -0.13800
C1358       C  0.65913652  0.00126467  0.33556651    -0.13600
C1359       C  0.67894391  0.00440090  0.31625761     0.25200
C1360       C  0.67843231  0.02558547  0.29968046    -0.19000
C1361       C  0.69773321  0.02886245  0.28121690    -0.07500
C1362       C  0.71790374  0.01105691  0.27908468    -0.03500
C1363       C  0.71834376  0.98983186  0.29573459    -0.08800
C1364       C  0.69896970  0.98651324  0.31416430    -0.16500
H1365       H  0.55841848  0.99363521  0.37851968     0.11700
H1366       H  0.59153173  0.99495589  0.34508362     0.10900
H1367       H  0.65012830  0.99995273  0.40318257     0.10900
H1368       H  0.61727730  0.99864757  0.43687685     0.11400
H1369       H  0.66314519  0.03962235  0.30106646     0.11500
H1370       H  0.69708212  0.04539970  0.26865195     0.11400
H1371       H  0.73350603  0.97570076  0.29423644     0.11600
H1372       H  0.69962297  0.97000828  0.32679074     0.10400
C1373       C  0.27681375  0.78414839  0.48952794    -0.03400
C1374       C  0.29499494  0.78641008  0.46975518    -0.09200
C1375       C  0.31264363  0.80657143  0.46994789    -0.16800
C1376       C  0.31246143  0.82446629  0.49006506     0.25300
C1377       C  0.29356120  0.82302977  0.50919122    -0.18500
C1378       C  0.27567034  0.80298007  0.50884619    -0.07400
C1379       C  0.33285342  0.84297339  0.49195254    -0.13800
C1380       C  0.35081769  0.85747978  0.49332914    -0.13600
C1381       C  0.37212497  0.87497507  0.49472370     0.25200
C1382       C  0.39737407  0.86613449  0.49182334    -0.19000
C1383       C  0.41794670  0.88346735  0.49277903    -0.07500
C1384       C  0.41339756  0.90984909  0.49658954    -0.03500
C1385       C  0.38787586  0.91835664  0.49967473    -0.08800
C1386       C  0.36748551  0.90107643  0.49873867    -0.16500
H1387       H  0.29625276  0.77189240  0.45483822     0.11700
H1388       H  0.32715531  0.80752926  0.45505539     0.10900
H1389       H  0.29331816  0.83674218  0.52490025     0.10900
H1390       H  0.26206898  0.80122600  0.52449639     0.11400
H1391       H  0.40113540  0.84589608  0.48867668     0.11500
H1392       H  0.43728045  0.87628730  0.49025594     0.11400
H1393       H  0.38351782  0.93847680  0.50274413     0.11600
H1394       H  0.34805473  0.90812873  0.50102501     0.10400
C1395       C  0.72571983  0.78685742  0.49834498    -0.03400
C1396       C  0.72707025  0.80586389  0.47929515    -0.09200
C1397       C  0.70922705  0.82604271  0.47913155    -0.16800
C1398       C  0.69015634  0.82741811  0.49814727     0.25300
C1399       C  0.68994667  0.80944287  0.51809088    -0.18500
C1400       C  0.70754850  0.78923795  0.51813309    -0.07400
C1401       C  0.66961996  0.84590843  0.49640272    -0.13800
C1402       C  0.65147060  0.86031137  0.49560593    -0.13600
C1403       C  0.62986139  0.87763558  0.49557929     0.25200
C1404       C  0.63302179  0.90275078  0.50458093    -0.19000
C1405       C  0.61232028  0.91975463  0.50474141    -0.07500
C1406       C  0.58794360  0.91190433  0.49604347    -0.03500
C1407       C  0.58479666  0.88652438  0.48721123    -0.08800
C1408       C  0.60569043  0.86951707  0.48690785    -0.16500
H1409       H  0.74061725  0.80405264  0.46359398     0.11700
H1410       H  0.70956547  0.83983441  0.46357379     0.10900
H1411       H  0.67536850  0.81030392  0.53292751     0.10900
H1412       H  0.70605785  0.77458358  0.53281349     0.11400
H1413       H  0.65153964  0.90923366  0.51147955     0.11500
H1414       H  0.61540999  0.93908175  0.51187219     0.11400
H1415       H  0.56634512  0.87996024  0.48025035     0.11600
H1416       H  0.60300248  0.85007696  0.47991209     0.10400
C1417       C  0.58571192  0.07982268  0.49887194    -0.03400
C1418       C  0.61050416  0.07181248  0.50613958    -0.09200
C1419       C  0.63115986  0.08880724  0.50533400    -0.16800
C1420       C  0.62747642  0.11409437  0.49726305     0.25300
C1421       C  0.60283499  0.12248717  0.49044073    -0.18500
C1422       C  0.58200492  0.10546865  0.49132419    -0.07400
C1423       C  0.64922607  0.13100661  0.49509851    -0.13800
C1424       C  0.66737346  0.14508932  0.49222259    -0.13600
C1425       C  0.68756728  0.16328215  0.48721890     0.25200
C1426       C  0.68523303  0.17981328  0.46622207    -0.19000
C1427       C  0.70289979  0.19960641  0.46267256    -0.07500
C1428       C  0.72322178  0.20312981  0.48004593    -0.03500
C1429       C  0.72639509  0.18558820  0.50029917    -0.08800
C1430       C  0.70856592  0.16573415  0.50389828    -0.16500
H1431       H  0.61406108  0.05225718  0.51225751     0.11700
H1432       H  0.65009624  0.08209285  0.51065947     0.10900
H1433       H  0.59980147  0.14205252  0.48407169     0.10900
H1434       H  0.56322614  0.11216175  0.48549440     0.11400
H1435       H  0.66912044  0.17807908  0.45317787     0.11500
H1436       H  0.69997493  0.21301038  0.44704887     0.11400
H1437       H  0.74155301  0.18825248  0.51427784     0.11600
H1438       H  0.71054400  0.15304101  0.52025085     0.10400
C1439       C  0.27686789  0.20600462  0.49077820    -0.03400
C1440       C  0.29804822  0.20638912  0.50745437    -0.09200
C1441       C  0.31486357  0.18559814  0.50842165    -0.16800
C1442       C  0.31077750  0.16417199  0.49269450     0.25300
C1443       C  0.28904779  0.16308246  0.47685562    -0.18500
C1444       C  0.27210909  0.18395574  0.47589491    -0.07400
C1445       C  0.32998858  0.14436735  0.49172340    -0.13800
C1446       C  0.34751704  0.12927059  0.49144499    -0.13600
C1447       C  0.36892092  0.11182934  0.49190641     0.25200
C1448       C  0.39409879  0.12120745  0.49314785    -0.19000
C1449       C  0.41484968  0.10413281  0.49425001    -0.07500
C1450       C  0.41061128  0.07743855  0.49414944    -0.03500
C1451       C  0.38513940  0.06832151  0.49279078    -0.08800
C1452       C  0.36453132  0.08537657  0.49167094    -0.16500
H1453       H  0.30213461  0.22325300  0.51900615     0.11700
H1454       H  0.33159662  0.18664735  0.52073263     0.10900
H1455       H  0.28576650  0.14659382  0.46453275     0.10900
H1456       H  0.25624000  0.18345845  0.46248553     0.11400
H1457       H  0.39768090  0.14171249  0.49338824     0.11500
H1458       H  0.43412332  0.11181733  0.49525852     0.11400
H1459       H  0.38100383  0.04793208  0.49260620     0.11600
H1460       H  0.34514839  0.07790379  0.49075034     0.10400
C1461       C  0.77726540  0.00084270  0.70437625    -0.03400
C1462       C  0.79620287  0.01966203  0.70086695    -0.09200
C1463       C  0.81354912  0.01767444  0.68054057    -0.16800
C1464       C  0.81232131  0.99670221  0.66371636     0.25300
C1465       C  0.79262993  0.97854868  0.66629544    -0.18500
C1466       C  0.77503524  0.98068549  0.68653453    -0.07400
C1467       C  0.83251298  0.99304718  0.64524004    -0.13800
C1468       C  0.85061501  0.99107217  0.63096155    -0.13600
C1469       C  0.87231911  0.99011723  0.61391659     0.25200
C1470       C  0.86873226  0.98314610  0.58823925    -0.19000
C1471       C  0.88931165  0.98381902  0.57111955    -0.07500
C1472       C  0.91391678  0.99147293  0.57941646    -0.03500
C1473       C  0.91752289  0.99782456  0.60545769    -0.08800
C1474       C  0.89677669  0.99722924  0.62259223    -0.16500
H1475       H  0.79833471  0.03518188  0.71462762     0.11700
H1476       H  0.82867555  0.03183105  0.67868210     0.10900
H1477       H  0.79156743  0.96219900  0.65340196     0.10900
H1478       H  0.76087575  0.96570967  0.68928982     0.11400
H1479       H  0.84992090  0.97757866  0.58133299     0.11500
H1480       H  0.88583949  0.97850086  0.55127631     0.11400
H1481       H  0.93616645  0.00379164  0.61243172     0.11600
H1482       H  0.89971579  0.00271094  0.64248469     0.10400
C1483       C  0.22192330  0.00321460  0.70738619    -0.03400
C1484       C  0.22589601  0.98453657  0.68825221    -0.09200
C1485       C  0.20888612  0.98260714  0.66748344    -0.16800
C1486       C  0.18792136  0.99938819  0.66572702     0.25300
C1487       C  0.18468279  0.01877615  0.68410194    -0.18500
C1488       C  0.20151027  0.02061971  0.70484733    -0.07400
C1489       C  0.16854281  0.99580791  0.64636397    -0.13800
C1490       C  0.15088730  0.99364664  0.63155407    -0.13600
C1491       C  0.12925262  0.99228172  0.61442511     0.25200
C1492       C  0.13191750  0.98081401  0.59023772    -0.19000
C1493       C  0.11147527  0.98110852  0.57288564    -0.07500
C1494       C  0.08798948  0.99275516  0.57956859    -0.03500
C1495       C  0.08515337  0.00339105  0.60426776    -0.08800
C1496       C  0.10574613  0.00328444  0.62153726    -0.16500
H1497       H  0.24110560  0.97050739  0.69018527     0.11700
H1498       H  0.21147588  0.96743377  0.65341894     0.10900
H1499       H  0.16852745  0.03182513  0.68296672     0.10900
H1500       H  0.19796656  0.03497362  0.71955437     0.11400
H1501       H  0.14994234  0.97208495  0.58460054     0.11500
H1502       H  0.11411441  0.97239011  0.55413057     0.11400
H1503       H  0.06731968  0.01246446  0.60992184     0.11600
H1504       H  0.10347932  0.01218482  0.64025879     0.10400
C1505       C  0.08835949  0.98962259  0.41151578    -0.03400
C1506       C  0.11376939  0.98725200  0.42054729    -0.09200
C1507       C  0.13444162  0.98772524  0.40355057    -0.16800
C1508       C  0.13018985  0.99044353  0.37721946     0.25300
C1509       C  0.10502282  0.99181023  0.36780831    -0.18500
C1510       C  0.08417627  0.99134377  0.38485411    -0.07400
C1511       C  0.15178705  0.99282924  0.36015784    -0.13800
C1512       C  0.16986351  0.99542526  0.34593853    -0.13600
C1513       C  0.19006526  0.99858087  0.32736839     0.25200
C1514       C  0.21036617  0.98095630  0.32606247    -0.19000
C1515       C  0.22768079  0.98182262  0.30547480    -0.07500
C1516       C  0.22467180  0.00028848  0.28607223    -0.03500
C1517       C  0.20517748  0.01877227  0.28836457    -0.08800
C1518       C  0.18803557  0.01797939  0.30894252    -0.16500
H1519       H  0.11783685  0.98551938  0.44088406     0.11700
H1520       H  0.15379893  0.98648525  0.41103117     0.10900
H1521       H  0.10153969  0.99377586  0.34737464     0.10900
H1522       H  0.06492352  0.99298725  0.37723828     0.11400
H1523       H  0.21204959  0.96581565  0.34021408     0.11500
H1524       H  0.24225725  0.96708652  0.30381465     0.11400
H1525       H  0.20247053  0.03307121  0.27351334     0.11600
H1526       H  0.17243528  0.03171659  0.30976791     0.10400
C1527       C  0.77731496  0.00777422  0.28711677    -0.03400
C1528       C  0.79664783  0.98906178  0.28587834    -0.09200
C1529       C  0.81387817  0.98615744  0.30606362    -0.16800
C1530       C  0.81207112  0.00199280  0.32769556     0.25300
C1531       C  0.79220553  0.02009868  0.32959582    -0.18500
C1532       C  0.77474480  0.02294126  0.30931304    -0.07400
C1533       C  0.83174537  0.00039422  0.34689365    -0.13800
C1534       C  0.84964366  0.99826033  0.36132285    -0.13600
C1535       C  0.87120783  0.99570378  0.37825908     0.25200
C1536       C  0.86706931  0.99482470  0.40471629    -0.19000
C1537       C  0.88783564  0.99353344  0.42146083    -0.07500
C1538       C  0.91323759  0.99317432  0.41203079    -0.03500
C1539       C  0.91722796  0.99337846  0.38529061    -0.08800
C1540       C  0.89626235  0.99464134  0.36848886    -0.16500
H1541       H  0.79904271  0.97740572  0.26874866     0.11700
H1542       H  0.82920030  0.97217795  0.30438635     0.10900
H1543       H  0.79077368  0.03254782  0.34626347     0.10900
H1544       H  0.76024914  0.03781999  0.31031109     0.11400
H1545       H  0.84777060  0.99549185  0.41245411     0.11500
H1546       H  0.88385519  0.99320572  0.44189422     0.11400
H1547       H  0.93644744  0.99295778  0.37739959     0.11600
H1548       H  0.89959135  0.99515915  0.34793309     0.10400
C1549       C  0.08659630  0.90985218  0.49419749    -0.03400
C1550       C  0.08007336  0.88358088  0.49448093    -0.09200
C1551       C  0.09919490  0.86472534  0.49406937    -0.16800
C1552       C  0.12508909  0.87178587  0.49333831     0.25300
C1553       C  0.13179119  0.89781704  0.49293657    -0.18500
C1554       C  0.11272404  0.91671947  0.49334863    -0.07400
C1555       C  0.14475767  0.85232058  0.49325532    -0.13800
C1556       C  0.16106512  0.83585750  0.49350464    -0.13600
C1557       C  0.18029573  0.81596190  0.49419417     0.25200
C1558       C  0.19959519  0.81505753  0.47547306    -0.19000
C1559       C  0.21817642  0.79565888  0.47614567    -0.07500
C1560       C  0.21777952  0.77699424  0.49564759    -0.03500
C1561       C  0.19835029  0.77807795  0.51437995    -0.08800
C1562       C  0.17971043  0.79739671  0.51361762    -0.16500
H1563       H  0.06020584  0.87754148  0.49509449     0.11700
H1564       H  0.09377527  0.84462927  0.49439877     0.10900
H1565       H  0.15177115  0.90352025  0.49238191     0.10900
H1566       H  0.11849650  0.93670413  0.49307275     0.11400
H1567       H  0.20022704  0.82927819  0.46031113     0.11500
H1568       H  0.23272834  0.79506323  0.46130856     0.11400
H1569       H  0.19780576  0.76414779  0.52977985     0.11600
H1570       H  0.16490584  0.79791568  0.52824073     0.10400
C1571       C  0.91647483  0.90848274  0.49794418    -0.03400
C1572       C  0.89031171  0.91421811  0.49445591    -0.09200
C1573       C  0.87186918  0.89465658  0.49486808    -0.16800
C1574       C  0.87921359  0.86908351  0.49881544     0.25300
C1575       C  0.90513977  0.86320328  0.50257706    -0.18500
C1576       C  0.92362960  0.88270323  0.50211379    -0.07400
C1577       C  0.86018758  0.84889326  0.49842884    -0.13800
C1578       C  0.84391639  0.83235263  0.49754020    -0.13600
C1579       C  0.82399358  0.81308362  0.49613422     0.25200
C1580       C  0.82112396  0.79800589  0.47393083    -0.19000
C1581       C  0.80152466  0.77962961  0.47246145    -0.07500
C1582       C  0.78437988  0.77639344  0.49304071    -0.03500
C1583       C  0.78733113  0.79151567  0.51522501    -0.08800
C1584       C  0.80710579  0.80965822  0.51682036    -0.16500
H1585       H  0.88407438  0.93378276  0.49118282     0.11700
H1586       H  0.85187035  0.89946971  0.49191975     0.10900
H1587       H  0.91110502  0.84351475  0.50569137     0.10900
H1588       H  0.94353854  0.87753761  0.50501530     0.11400
H1589       H  0.83398095  0.80049782  0.45775352     0.11500
H1590       H  0.79947237  0.76813179  0.45520263     0.11400
H1591       H  0.77442395  0.78905248  0.53134495     0.11600
H1592       H  0.80912718  0.82111795  0.53412189     0.10400
C1593       C  0.91500205  0.08025423  0.49398125    -0.03400
C1594       C  0.92151888  0.10650438  0.49553208    -0.09200
C1595       C  0.90244126  0.12545520  0.49523715    -0.16800
C1596       C  0.87654743  0.11855866  0.49333822     0.25300
C1597       C  0.86984630  0.09253617  0.49190153    -0.18500
C1598       C  0.88887384  0.07353662  0.49223830    -0.07400
C1599       C  0.85691566  0.13816303  0.49245057    -0.13800
C1600       C  0.84050951  0.15455898  0.49131114    -0.13600
C1601       C  0.82086129  0.17409275  0.48963827     0.25200
C1602       C  0.80325947  0.17378086  0.46928381    -0.19000
C1603       C  0.78411921  0.19259543  0.46772828    -0.07500
C1604       C  0.78235358  0.21201766  0.48647972    -0.03500
C1605       C  0.80010780  0.21227873  0.50680269    -0.08800
C1606       C  0.81923045  0.19344137  0.50836572    -0.16500
H1607       H  0.94136924  0.11245864  0.49697792     0.11700
H1608       H  0.90791352  0.14551058  0.49637299     0.10900
H1609       H  0.84989299  0.08691180  0.49039913     0.10900
H1610       H  0.88308484  0.05359117  0.49098698     0.11400
H1611       H  0.80432764  0.15899639  0.45461495     0.11500
H1612       H  0.77078906  0.19217556  0.45178004     0.11400
H1613       H  0.79896251  0.22689827  0.52159919     0.11600
H1614       H  0.83268197  0.19391853  0.52422755     0.10400
C1615       C  0.08549304  0.08140549  0.49306111    -0.03400
C1616       C  0.11158537  0.07528636  0.49642959    -0.09200
C1617       C  0.13027044  0.09458016  0.49625864    -0.16800
C1618       C  0.12324947  0.12027033  0.49264104     0.25300
C1619       C  0.09739059  0.12657649  0.48906881    -0.18500
C1620       C  0.07863724  0.10732323  0.48929334    -0.07400
C1621       C  0.14264503  0.14005184  0.49234347    -0.13800
C1622       C  0.15912587  0.15635367  0.49161134    -0.13600
C1623       C  0.17883931  0.17573797  0.48978603     0.25200
C1624       C  0.17911888  0.19255349  0.46882732    -0.19000
C1625       C  0.19830370  0.21120662  0.46673428    -0.07500
C1626       C  0.21745187  0.21337814  0.48562169    -0.03500
C1627       C  0.21710065  0.19645130  0.50663330    -0.08800
C1628       C  0.19791125  0.17770877  0.50868168    -0.16500
H1629       H  0.11760182  0.05560074  0.49937155     0.11700
H1630       H  0.15022343  0.08944368  0.49896767     0.10900
H1631       H  0.09171004  0.14637684  0.48612505     0.10900
H1632       H  0.05878922  0.11276941  0.48649035     0.11400
H1633       H  0.16454590  0.19119163  0.45404284     0.11500
H1634       H  0.19833162  0.22391029  0.45029027     0.11400
H1635       H  0.23152875  0.19794055  0.52152045     0.11600
H1636       H  0.19792308  0.16480781  0.52499315     0.10400
C1637       C  0.97364999  0.70425555  0.21921111    -0.03400
C1638       C  0.95576162  0.70209846  0.19911177    -0.09200
C1639       C  0.95766053  0.68219575  0.18121612    -0.16800
C1640       C  0.97741407  0.66417088  0.18323589     0.25300
C1641       C  0.99448363  0.66531905  0.20400844    -0.18500
C1642       C  0.99264911  0.68533170  0.22194258    -0.07400
C1643       C  0.98119821  0.64582392  0.16290058    -0.13800
C1644       C  0.98440744  0.63137507  0.14506108    -0.13600
C1645       C  0.98815936  0.61388819  0.12396237     0.25200
C1646       C  0.99241565  0.58791401  0.12898582    -0.19000
C1647       C  0.99574401  0.57064007  0.10872801    -0.07500
C1648       C  0.99490259  0.57906857  0.08298428    -0.03500
C1649       C  0.99071352  0.60531624  0.07809745    -0.08800
C1650       C  0.98736115  0.62262070  0.09850961    -0.16500
H1651       H  0.94105197  0.71656890  0.19654994     0.11700
H1652       H  0.94436894  0.68148744  0.16521803     0.10900
H1653       H  0.00990098  0.65146821  0.20566775     0.10900
H1654       H  0.00705882  0.68691990  0.23683701     0.11400
H1655       H  0.99305118  0.58096308  0.14859959     0.11500
H1656       H  0.99887313  0.55060867  0.11334139     0.11400
H1657       H  0.98981872  0.61243537  0.05857649     0.11600
H1658       H  0.98402906  0.64275192  0.09444756     0.10400
C1659       C  0.98935575  0.77091383  0.28679817    -0.03400
C1660       C  0.97358415  0.76746592  0.30840481    -0.09200
C1661       C  0.97557393  0.78428169  0.32938748    -0.16800
C1662       C  0.99343694  0.80441573  0.32881869     0.25300
C1663       C  0.00990056  0.80712017  0.30780926    -0.18500
C1664       C  0.00783965  0.79051212  0.28689471    -0.07400
C1665       C  0.99405104  0.82353315  0.34870950    -0.13800
C1666       C  0.99543732  0.84120158  0.36359228    -0.13600
C1667       C  0.99747446  0.86288146  0.38053991     0.25200
C1668       C  0.99627484  0.85913093  0.40704373    -0.19000
C1669       C  0.99774050  0.88010897  0.42363873    -0.07500
C1670       C  0.00038425  0.90527970  0.41395959    -0.03500
C1671       C  0.00191115  0.90885230  0.38722713    -0.08800
C1672       C  0.00048892  0.88770505  0.37060645    -0.16500
H1673       H  0.95887292  0.75277211  0.30842348     0.11700
H1674       H  0.96264135  0.78216172  0.34555612     0.10900
H1675       H  0.02371321  0.82267116  0.30718149     0.10900
H1676       H  0.02001810  0.79356588  0.27029512     0.11400
H1677       H  0.99402268  0.83999603  0.41489927     0.11500
H1678       H  0.99649770  0.87651547  0.44410097     0.11400
H1679       H  0.00406390  0.92789842  0.37918174     0.11600
H1680       H  0.00155470  0.89071663  0.35003011     0.10400
C1681       C  0.00713113  0.28205099  0.77434289    -0.03400
C1682       C  0.98980106  0.30241418  0.77093416    -0.09200
C1683       C  0.98903629  0.32264068  0.78868076    -0.16800
C1684       C  0.00549492  0.32255469  0.80994938     0.25300
C1685       C  0.02357208  0.30294783  0.81277476    -0.18500
C1686       C  0.02440775  0.28281821  0.79506868    -0.07400
C1687       C  0.00295351  0.34159282  0.82978323    -0.13800
C1688       C  0.00140855  0.35672765  0.84723931    -0.13600
C1689       C  0.00087419  0.37497163  0.86796341     0.25200
C1690       C  0.99648918  0.36691446  0.89326356    -0.19000
C1691       C  0.99721650  0.38473388  0.91345993    -0.07500
C1692       C  0.00228703  0.41080944  0.90847652    -0.03500
C1693       C  0.00638836  0.41862816  0.88288287    -0.08800
C1694       C  0.00570940  0.40082798  0.86283251    -0.16500
H1695       H  0.97584280  0.30194594  0.75554508     0.11700
H1696       H  0.97493657  0.33775201  0.78640057     0.10900
H1697       H  0.03640551  0.30273930  0.82915802     0.10900
H1698       H  0.03786175  0.26726601  0.79814321     0.11400
H1699       H  0.99272983  0.34686929  0.89739051     0.11500
H1700       H  0.99376384  0.37812935  0.93288284     0.11400
H1701       H  0.01036322  0.43851456  0.87828422     0.11600
H1702       H  0.00919986  0.40721296  0.84332477     0.10400
C1703       C  0.99906957  0.08414022  0.57736013    -0.03400
C1704       C  0.99773393  0.07964205  0.60398077    -0.09200
C1705       C  0.99540642  0.10022179  0.62116470    -0.16800
C1706       C  0.99437254  0.12544207  0.61192994     0.25300
C1707       C  0.99611444  0.13014574  0.58558805    -0.18500
C1708       C  0.99844698  0.10968884  0.56840461    -0.07400
C1709       C  0.99142055  0.14657551  0.62940198    -0.13800
C1710       C  0.98943148  0.16420099  0.64424911    -0.13600
C1711       C  0.98842313  0.18413810  0.66326565     0.25200
C1712       C  0.00894508  0.20133069  0.66569697    -0.19000
C1713       C  0.00991991  0.21823292  0.68656747    -0.07500
C1714       C  0.99047649  0.21777611  0.70516105    -0.03500
C1715       C  0.96933717  0.20140607  0.70198920    -0.08800
C1716       C  0.96822742  0.18472875  0.68097967    -0.16500
H1717       H  0.99818707  0.06027336  0.61151291     0.11700
H1718       H  0.99419040  0.09645929  0.64160816     0.10900
H1719       H  0.99545433  0.14962502  0.57830260     0.10900
H1720       H  0.99947620  0.11396369  0.54806503     0.11400
H1721       H  0.02474707  0.20081672  0.65216471     0.11500
H1722       H  0.02659505  0.23039363  0.68912178     0.11400
H1723       H  0.95437122  0.20069056  0.71643376     0.11600
H1724       H  0.95232581  0.17142394  0.67928103     0.10400
C1725       C  0.00247210  0.57926293  0.90857075    -0.03400
C1726       C  0.99774522  0.60550172  0.91309187    -0.09200
C1727       C  0.99746563  0.62289666  0.89258475    -0.16800
C1728       C  0.00198079  0.61425840  0.86743219     0.25300
C1729       C  0.00698998  0.58831330  0.86283718    -0.18500
C1730       C  0.00722217  0.57094890  0.88317808    -0.07400
C1731       C  0.00084876  0.63173046  0.84612092    -0.13800
C1732       C  0.99930487  0.64614426  0.82811306    -0.13600
C1733       C  0.99673739  0.66455247  0.80774192     0.25200
C1734       C  0.01539950  0.66639760  0.78840715    -0.19000
C1735       C  0.01441818  0.68656213  0.77065532    -0.07500
C1736       C  0.99485358  0.70501089  0.77235090    -0.03500
C1737       C  0.97544486  0.70213599  0.79084117    -0.08800
C1738       C  0.97634871  0.68197670  0.80839821    -0.16500
H1739       H  0.99396800  0.61251498  0.93234706     0.11700
H1740       H  0.99351620  0.64300381  0.89630606     0.10900
H1741       H  0.01051379  0.58143918  0.84346507     0.10900
H1742       H  0.01108869  0.55094262  0.87890695     0.11400
H1743       H  0.03128229  0.65298849  0.78778219     0.11500
H1744       H  0.02981040  0.68875505  0.75683852     0.11400
H1745       H  0.96032356  0.71632182  0.79253380     0.11600
H1746       H  0.96179932  0.68069405  0.82323032     0.10400
C1747       C  0.00807717  0.77390411  0.70683444    -0.03400
C1748       C  0.99103784  0.77029757  0.68623316    -0.09200
C1749       C  0.99042134  0.78804016  0.66604724    -0.16800
C1750       C  0.00681938  0.80938818  0.66642768     0.25300
C1751       C  0.02470002  0.81224621  0.68621230    -0.18500
C1752       C  0.02530837  0.79463564  0.70631014    -0.07400
C1753       C  0.00419722  0.82953041  0.64783588    -0.13800
C1754       C  0.00242690  0.84753354  0.63348455    -0.13600
C1755       C  0.00094137  0.86881664  0.61607348     0.25200
C1756       C  0.00412802  0.89410185  0.62488458    -0.19000
C1757       C  0.00369832  0.91458014  0.60745908    -0.07500
C1758       C  0.00015661  0.90984733  0.58105853    -0.03500
C1759       C  0.99654304  0.88432456  0.57262871    -0.08800
C1760       C  0.99694770  0.86404066  0.58999432    -0.16500
H1761       H  0.97720482  0.75478082  0.68653973     0.11700
H1762       H  0.97645182  0.78573998  0.65080032     0.10900
H1763       H  0.03744653  0.82869163  0.68667398     0.10900
H1764       H  0.03846865  0.79783951  0.72210993     0.11400
H1765       H  0.00722549  0.89794201  0.64513048     0.11500
H1766       H  0.00650968  0.93395468  0.61456207     0.11400
H1767       H  0.99354030  0.87987703  0.55250127     0.11600
H1768       H  0.99441017  0.84456624  0.58300988     0.10400
C1769       C  0.08373345  0.58186807  0.49218374    -0.03400
C1770       C  0.10966869  0.57799267  0.49844926    -0.09200
C1771       C  0.12662476  0.59883328  0.49933943    -0.16800
C1772       C  0.11787810  0.62367987  0.49385451     0.25300
C1773       C  0.09233984  0.62756544  0.48678423    -0.18500
C1774       C  0.07538155  0.60685616  0.48594826    -0.07400
C1775       C  0.13482818  0.64533605  0.49628283    -0.13800
C1776       C  0.14921685  0.66328852  0.49874405    -0.13600
C1777       C  0.16776388  0.68354345  0.50154185     0.25200
C1778       C  0.17116092  0.70155583  0.48186458    -0.19000
C1779       C  0.19152508  0.71902024  0.48299819    -0.07500
C1780       C  0.20874559  0.71835443  0.50369127    -0.03500
C1781       C  0.20450917  0.70110987  0.52396228    -0.08800
C1782       C  0.18398734  0.68388667  0.52297017    -0.16500
H1783       H  0.11668092  0.55904080  0.50333340     0.11700
H1784       H  0.14642757  0.59564371  0.50476388     0.10900
H1785       H  0.08540983  0.64667789  0.48235470     0.10900
H1786       H  0.05560794  0.61053022  0.48074153     0.11400
H1787       H  0.15879045  0.70134340  0.46513613     0.11500
H1788       H  0.19483697  0.73183933  0.46696477     0.11400
H1789       H  0.21779281  0.70019854  0.53994439     0.11600
H1790       H  0.18153146  0.67003201  0.53829072     0.10400
C1791       C  0.78976389  0.27130369  0.49219044    -0.03400
C1792       C  0.79002022  0.28996178  0.51173985    -0.09200
C1793       C  0.81041947  0.30718295  0.51382876    -0.16800
C1794       C  0.83068279  0.30609664  0.49623664     0.25300
C1795       C  0.83119766  0.28670058  0.47745725    -0.18500
C1796       C  0.81080611  0.26926272  0.47547703    -0.07400
C1797       C  0.84959828  0.32623621  0.49618313    -0.13800
C1798       C  0.86434709  0.34407808  0.49575066    -0.13600
C1799       C  0.88197330  0.36535501  0.49504691     0.25200
C1800       C  0.87320018  0.39062518  0.49823346    -0.19000
C1801       C  0.89059216  0.41115717  0.49807303    -0.07500
C1802       C  0.91700018  0.40659999  0.49479985    -0.03500
C1803       C  0.92546130  0.38109425  0.49118668    -0.08800
C1804       C  0.90808899  0.36070281  0.49132623    -0.16500
H1805       H  0.77385677  0.29187557  0.52470907     0.11700
H1806       H  0.80981249  0.32206575  0.52843002     0.10900
H1807       H  0.84677825  0.28575386  0.46369511     0.10900
H1808       H  0.81073084  0.25525752  0.46003446     0.11400
H1809       H  0.85296060  0.39443914  0.50103809     0.11500
H1810       H  0.88341184  0.43049099  0.50083638     0.11400
H1811       H  0.94559008  0.37676792  0.48839603     0.11600
H1812       H  0.91507664  0.34125800  0.48871239     0.10400
C1813       C  0.08444446  0.40745618  0.49403618    -0.03400
C1814       C  0.07687591  0.38299370  0.50275545    -0.09200
C1815       C  0.09306205  0.36189527  0.49999050    -0.16800
C1816       C  0.11704725  0.36487759  0.48848732     0.25300
C1817       C  0.12506790  0.38918832  0.48016118    -0.18500
C1818       C  0.10886005  0.41046511  0.48299028    -0.07400
C1819       C  0.13331066  0.34289037  0.48520589    -0.13800
C1820       C  0.14750765  0.32487681  0.48247789    -0.13600
C1821       C  0.16651674  0.30526178  0.47902495     0.25200
C1822       C  0.18439489  0.30780114  0.45917500    -0.19000
C1823       C  0.20523512  0.29110543  0.45771739    -0.07500
C1824       C  0.20841197  0.27166070  0.47610393    -0.03500
C1825       C  0.18967208  0.26832340  0.49523280    -0.08800
C1826       C  0.16876432  0.28511682  0.49668707    -0.16500
H1827       H  0.05825028  0.38006411  0.51151398     0.11700
H1828       H  0.08675156  0.34320450  0.50660452     0.10900
H1829       H  0.14369375  0.39161955  0.47124078     0.10900
H1830       H  0.11508486  0.42900020  0.47591659     0.11400
H1831       H  0.18284683  0.32338959  0.44549102     0.11500
H1832       H  0.21952785  0.29407713  0.44289383     0.11400
H1833       H  0.19202284  0.25386481  0.50996869     0.11600
H1834       H  0.15507258  0.28313451  0.51223639     0.10400
C1835       C  0.91650926  0.58135945  0.49807974    -0.03400
C1836       C  0.92521667  0.60666414  0.50246907    -0.09200
C1837       C  0.90838039  0.62741686  0.50113088    -0.16800
C1838       C  0.88254036  0.62330425  0.49549017     0.25300
C1839       C  0.87347382  0.59823519  0.49156353    -0.18500
C1840       C  0.89034450  0.57732315  0.49291239    -0.07400
C1841       C  0.86545369  0.64488474  0.49350271    -0.13800
C1842       C  0.85070223  0.66258645  0.49154856    -0.13600
C1843       C  0.83148944  0.68217717  0.48869452     0.25200
C1844       C  0.81309170  0.67963996  0.46931613    -0.19000
C1845       C  0.79275701  0.69698565  0.46786693    -0.07500
C1846       C  0.79065898  0.71721798  0.48567948    -0.03500
C1847       C  0.80967189  0.72024983  0.50457408    -0.08800
C1848       C  0.83001238  0.70274091  0.50609366    -0.16500
H1849       H  0.94517967  0.61055678  0.50671256     0.11700
H1850       H  0.91558674  0.64670162  0.50428847     0.10900
H1851       H  0.85342970  0.59488889  0.48720582     0.10900
H1852       H  0.88304265  0.55815623  0.48939100     0.11400
H1853       H  0.81398133  0.66373385  0.45585187     0.11500
H1854       H  0.77813245  0.69410613  0.45335425     0.11400
H1855       H  0.80803842  0.73520410  0.51899276     0.11600
H1856       H  0.84403924  0.70471769  0.52133190     0.10400
C1857       C  0.08279991  0.49965081  0.40782153    -0.03400
C1858       C  0.10855771  0.49237401  0.41097585    -0.09200
C1859       C  0.12583687  0.49454885  0.39049764    -0.16800
C1860       C  0.11760887  0.50419513  0.36676845     0.25300
C1861       C  0.09209194  0.51170878  0.36354793    -0.18500
C1862       C  0.07477511  0.50939544  0.38388242    -0.07400
C1863       C  0.13530219  0.50622898  0.34567395    -0.13800
C1864       C  0.15069675  0.50758445  0.32845693    -0.13600
C1865       C  0.17058641  0.50867254  0.30935881     0.25200
C1866       C  0.17023285  0.49200404  0.28815464    -0.19000
C1867       C  0.19114132  0.49115652  0.27126258    -0.07500
C1868       C  0.21245269  0.50717235  0.27537256    -0.03500
C1869       C  0.21214800  0.52447452  0.29619550    -0.08800
C1870       C  0.19139196  0.52517706  0.31308545    -0.16500
H1871       H  0.11524043  0.48470907  0.42911224     0.11700
H1872       H  0.14558561  0.48864604  0.39314296     0.10900
H1873       H  0.08555563  0.51927802  0.34530127     0.10900
H1874       H  0.05511457  0.51541647  0.38089291     0.11400
H1875       H  0.15427095  0.47898931  0.28525325     0.11500
H1876       H  0.19116439  0.47710887  0.25588423     0.11400
H1877       H  0.22838485  0.53693948  0.29987126     0.11600
H1878       H  0.19193352  0.53804315  0.32949737     0.10400
C1879       C  0.79117419  0.49660436  0.27330286    -0.03400
C1880       C  0.81071713  0.47817412  0.27116236    -0.09200
C1881       C  0.83041068  0.47744832  0.28944354    -0.16800
C1882       C  0.83061094  0.49519006  0.30977873     0.25300
C1883       C  0.81202102  0.51446730  0.31103300    -0.18500
C1884       C  0.79240285  0.51516660  0.29290519    -0.07400
C1885       C  0.84864508  0.49280879  0.33043205    -0.13800
C1886       C  0.86277943  0.49148132  0.34863878    -0.13600
C1887       C  0.88009813  0.49049167  0.37000741     0.25200
C1888       C  0.87217778  0.49828398  0.39457808    -0.19000
C1889       C  0.88961761  0.49824613  0.41502746    -0.07500
C1890       C  0.91514963  0.49057706  0.41093432    -0.03500
C1891       C  0.92268688  0.48238733  0.38621827    -0.08800
C1892       C  0.90526975  0.48234532  0.36594845    -0.16500
H1893       H  0.80978267  0.46337716  0.25650980     0.11700
H1894       H  0.84475752  0.46242270  0.28838806     0.10900
H1895       H  0.81203545  0.52826778  0.32667821     0.10900
H1896       H  0.77733975  0.52936541  0.29498114     0.11400
H1897       H  0.85266557  0.50467841  0.39783863     0.11500
H1898       H  0.88332223  0.50474590  0.43379814     0.11400
H1899       H  0.94214697  0.47612605  0.38244620     0.11600
H1900       H  0.91153415  0.47624590  0.34701789     0.10400
C1901       C  0.08556239  0.49614762  0.58287433    -0.03400
C1902       C  0.07735798  0.50200097  0.60809522    -0.09200
C1903       C  0.09452641  0.50153350  0.62865703    -0.16800
C1904       C  0.12021654  0.49521014  0.62449095     0.25300
C1905       C  0.12879919  0.48984862  0.59947624    -0.18500
C1906       C  0.11159768  0.49036959  0.57874554    -0.07400
C1907       C  0.13758302  0.49399149  0.64599206    -0.13800
C1908       C  0.15233752  0.49303585  0.66382430    -0.13600
C1909       C  0.17150568  0.49224673  0.68372516     0.25200
C1910       C  0.19144513  0.47434648  0.68200327    -0.19000
C1911       C  0.21211357  0.47573364  0.69898394    -0.07500
C1912       C  0.21295707  0.49488980  0.71803917    -0.03500
C1913       C  0.19228650  0.51196343  0.72062400    -0.08800
C1914       C  0.17162679  0.51066835  0.70346151    -0.16500
H1915       H  0.05753879  0.50682595  0.61207016     0.11700
H1916       H  0.08767901  0.50587844  0.64786385     0.10900
H1917       H  0.14872200  0.48501367  0.59603846     0.10900
H1918       H  0.11854817  0.48579213  0.55965346     0.11400
H1919       H  0.19159489  0.46005734  0.66680830     0.11500
H1920       H  0.22803178  0.46256179  0.69655669     0.11400
H1921       H  0.19286837  0.52718957  0.73484994     0.11600
H1922       H  0.15634873  0.52470754  0.70487759     0.10400
C1923       C  0.91836457  0.49521839  0.58550808    -0.03400
C1924       C  0.92782836  0.49529315  0.61092798    -0.09200
C1925       C  0.91115049  0.49482644  0.63186811    -0.16800
C1926       C  0.88469970  0.49433216  0.62791821     0.25300
C1927       C  0.87492238  0.49438313  0.60279123    -0.18500
C1928       C  0.89165233  0.49481886  0.58166326    -0.07400
C1929       C  0.86775961  0.49402813  0.64977626    -0.13800
C1930       C  0.85324897  0.49415879  0.66783668    -0.13600
C1931       C  0.83373561  0.49471549  0.68740390     0.25200
C1932       C  0.81191441  0.50974667  0.68340434    -0.19000
C1933       C  0.79102822  0.50777258  0.70000799    -0.07500
C1934       C  0.79164834  0.49072933  0.72089297    -0.03500
C1935       C  0.81420623  0.47678942  0.72580558    -0.08800
C1936       C  0.83522069  0.47879445  0.70907622    -0.16500
H1937       H  0.94823178  0.49560866  0.61478990     0.11700
H1938       H  0.91893023  0.49484965  0.65118629     0.10900
H1939       H  0.85440018  0.49407080  0.59954103     0.10900
H1940       H  0.88370975  0.49477525  0.56243076     0.11400
H1941       H  0.81056697  0.52214025  0.66674941     0.11500
H1942       H  0.77384916  0.51870155  0.69584652     0.11400
H1943       H  0.81499886  0.46320728  0.74151446     0.11600
H1944       H  0.85205588  0.46704951  0.71233988     0.10400
C1945       C  0.99843735  0.57927042  0.40980877    -0.03400
C1946       C  0.00195323  0.60536815  0.41627274    -0.09200
C1947       C  0.00072357  0.62446857  0.39736940    -0.16800
C1948       C  0.99593680  0.61787582  0.37168528     0.25300
C1949       C  0.99272146  0.59198310  0.36501011    -0.18500
C1950       C  0.99401023  0.57283293  0.38385625    -0.07400
C1951       C  0.99397914  0.63761075  0.35222403    -0.13800
C1952       C  0.99202006  0.65389727  0.33576331    -0.13600
C1953       C  0.98948403  0.67332620  0.31606286     0.25200
C1954       C  0.96876185  0.67266612  0.29890437    -0.19000
C1955       C  0.96607011  0.69175088  0.28013338    -0.07500
C1956       C  0.98411772  0.71173733  0.27819203    -0.03500
C1957       C  0.00503259  0.71208133  0.29525585    -0.08800
C1958       C  0.00764995  0.69306558  0.31408329    -0.16500
H1959       H  0.00557481  0.61109219  0.43597336     0.11700
H1960       H  0.00333570  0.64440143  0.40283744     0.10900
H1961       H  0.98903320  0.58658622  0.34522066     0.10900
H1962       H  0.99122377  0.55301634  0.37810954     0.11400
H1963       H  0.95457862  0.65750501  0.30015148     0.11500
H1964       H  0.94974660  0.69112044  0.26729525     0.11400
H1965       H  0.01941919  0.72700755  0.29389470     0.11600
H1966       H  0.02384152  0.69377801  0.32711151     0.10400
C1967       C  0.00047040  0.40900916  0.58246382    -0.03400
C1968       C  0.99747485  0.38289566  0.57576746    -0.09200
C1969       C  0.99622471  0.36386033  0.59476559    -0.16800
C1970       C  0.99801176  0.37045712  0.62083975     0.25300
C1971       C  0.00097958  0.39635410  0.62772078    -0.18500
C1972       C  0.00218270  0.41545516  0.60875385    -0.07400
C1973       C  0.99718112  0.35066115  0.64044489    -0.13800
C1974       C  0.99693856  0.33410289  0.65682319    -0.13600
C1975       C  0.99717877  0.31438888  0.67652205     0.25200
C1976       C  0.01751874  0.31304250  0.69410852    -0.19000
C1977       C  0.01788004  0.29398663  0.71312243    -0.07500
C1978       C  0.99791787  0.27592040  0.71483870    -0.03500
C1979       C  0.97752950  0.27737693  0.69718937    -0.08800
C1980       C  0.97716379  0.29645783  0.67819110    -0.16500
H1981       H  0.99596017  0.37710799  0.55581172     0.11700
H1982       H  0.99391306  0.34395214  0.58907870     0.10900
H1983       H  0.00241511  0.40180928  0.64778575     0.10900
H1984       H  0.00446117  0.43527255  0.61472159     0.11400
H1985       H  0.03317628  0.32668384  0.69306997     0.11500
H1986       H  0.03390458  0.29309798  0.72631429     0.11400
H1987       H  0.96182309  0.26381434  0.69824251     0.11600
H1988       H  0.96127089  0.29721079  0.66480597     0.10400
C1989       C  0.00259856  0.58185200  0.58040011    -0.03400
C1990       C  0.00321515  0.60794735  0.57312872    -0.09200
C1991       C  0.00366853  0.62746684  0.59174695    -0.16800
C1992       C  0.00354664  0.62130832  0.61794165     0.25300
C1993       C  0.00302363  0.59546481  0.62536846    -0.18500
C1994       C  0.00258607  0.57590567  0.60680511    -0.07400
C1995       C  0.00389929  0.64140534  0.63722773    -0.13800
C1996       C  0.00400380  0.65782629  0.65375701    -0.13600
C1997       C  0.00366045  0.67699122  0.67396826     0.25200
C1998       C  0.98429579  0.67654933  0.69265085    -0.19000
C1999       C  0.98378096  0.69506792  0.71222429    -0.07500
C2000       C  0.00267473  0.71429938  0.71347406    -0.03500
C2001       C  0.02215840  0.71457220  0.69474995    -0.08800
C2002       C  0.02262075  0.69606590  0.67511092    -0.16500
H2003       H  0.00330755  0.61334966  0.55303701     0.11700
H2004       H  0.00408302  0.64736679  0.58569202     0.10900
H2005       H  0.00292583  0.59040376  0.64555992     0.10900
H2006       H  0.00216445  0.55612439  0.61318149     0.11400
H2007       H  0.96949999  0.66194359  0.69202355     0.11500
H2008       H  0.96842048  0.69461330  0.72622340     0.11400
H2009       H  0.03707030  0.72902960  0.69544344     0.11600
H2010       H  0.03776913  0.69661975  0.66085418     0.10400
C2011       C  0.00784804  0.28442416  0.21794053    -0.03400
C2012       C  0.02714854  0.28632793  0.19918778    -0.09200
C2013       C  0.02715640  0.30659892  0.18173412    -0.16800
C2014       C  0.00782271  0.32516593  0.18275848     0.25300
C2015       C  0.98928493  0.32422522  0.20227870    -0.18500
C2016       C  0.98931872  0.30391050  0.21989534    -0.07400
C2017       C  0.00615422  0.34390611  0.16259561    -0.13800
C2018       C  0.00525740  0.35856339  0.14474220    -0.13600
C2019       C  0.00476274  0.37626332  0.12360081     0.25200
C2020       C  0.00561098  0.40260570  0.12857275    -0.19000
C2021       C  0.00541532  0.42003702  0.10829713    -0.07500
C2022       C  0.00436673  0.41139497  0.08258952    -0.03500
C2023       C  0.00355642  0.38480342  0.07773226    -0.08800
C2024       C  0.00374749  0.36733558  0.09816949    -0.16500
H2025       H  0.04149794  0.27138763  0.19726557     0.11700
H2026       H  0.04159313  0.30716281  0.16674447     0.10900
H2027       H  0.97420155  0.33851767  0.20317915     0.10900
H2028       H  0.97396678  0.30252234  0.23385831     0.11400
H2029       H  0.00647024  0.40970174  0.14816437     0.11500
H2030       H  0.00612439  0.44033583  0.11287506     0.11400
H2031       H  0.00271591  0.37751350  0.05822981     0.11600
H2032       H  0.00313428  0.34690900  0.09414757     0.10400
C2033       C  0.99726765  0.08007464  0.40942899    -0.03400
C2034       C  0.00343069  0.07568731  0.38345641    -0.09200
C2035       C  0.00159240  0.09566679  0.36554560    -0.16800
C2036       C  0.99344489  0.12013477  0.37338578     0.25300
C2037       C  0.98730842  0.12463013  0.39914234    -0.18500
C2038       C  0.98924342  0.10482734  0.41703428    -0.07400
C2039       C  0.99147693  0.14082073  0.35521751    -0.13800
C2040       C  0.99000558  0.15861192  0.34051175    -0.13600
C2041       C  0.98898436  0.17947841  0.32247282     0.25200
C2042       C  0.96941375  0.18030242  0.30410855    -0.19000
C2043       C  0.97013007  0.19867885  0.28462501    -0.07500
C2044       C  0.99028416  0.21653579  0.28346115    -0.03500
C2045       C  0.00909133  0.21659219  0.30272453    -0.08800
C2046       C  0.00848111  0.19802694  0.32213619    -0.16500
H2047       H  0.00981096  0.05693350  0.37704284     0.11700
H2048       H  0.00650034  0.09203727  0.34562039     0.10900
H2049       H  0.98100006  0.14347433  0.40541867     0.10900
H2050       H  0.98419241  0.10891041  0.43683217     0.11400
H2051       H  0.95425163  0.16606059  0.30416912     0.11500
H2052       H  0.95568937  0.19816026  0.26965966     0.11400
H2053       H  0.02510635  0.22981397  0.30174803     0.11600
H2054       H  0.02377342  0.19746241  0.33621776     0.10400
C2055       C  0.99768954  0.27575170  0.27676552    -0.03400
C2056       C  0.97735444  0.27631620  0.29454357    -0.09200
C2057       C  0.97671286  0.29486115  0.31415782    -0.16800
C2058       C  0.99641185  0.31309084  0.31631310     0.25300
C2059       C  0.01663309  0.31271316  0.29853629    -0.18500
C2060       C  0.01726608  0.29421111  0.27891591    -0.07400
C2061       C  0.99601329  0.33212066  0.33671966    -0.13800
C2062       C  0.99618258  0.34832654  0.35350279    -0.13600
C2063       C  0.99682401  0.36818450  0.37310348     0.25200
C2064       C  0.99257134  0.39390006  0.36645352    -0.19000
C2065       C  0.99356155  0.41325842  0.38523140    -0.07500
C2066       C  0.99874639  0.40725336  0.41111985    -0.03500
C2067       C  0.00291617  0.38129807  0.41763581    -0.08800
C2068       C  0.00200609  0.36197855  0.39878488    -0.16500
H2069       H  0.96190214  0.26249483  0.29310930     0.11700
H2070       H  0.96088145  0.29494470  0.32765936     0.10900
H2071       H  0.03201021  0.32664949  0.29992231     0.10900
H2072       H  0.03323955  0.29404272  0.26561189     0.11400
H2073       H  0.98852836  0.39902676  0.34669148     0.11500
H2074       H  0.99010106  0.43292757  0.37945666     0.11400
H2075       H  0.00700854  0.37588640  0.43729896     0.11600
H2076       H  0.00539571  0.34219629  0.40425590     0.10400
loop_ 
_geom_bond_atom_site_label_1 
_geom_bond_atom_site_label_2 
_geom_bond_distance 
_geom_bond_site_symmetry_2 
_ccdc_geom_bond_type 
N1            C5   1.359       .  A
N1            C2   1.360   1_655  A
N1         C2055   1.446       .  S
C2            C3   1.382       .  A
C2         C2011   1.475       .  S
C3            C4   1.369   1_455  A
C3            H6   1.082       .  S
C4            C5   1.380       .  A
C4            H7   1.082       .  S
C5         C2044   1.471       .  S
O8          Zr44   2.447       .  S
O8           C19   1.294   1_455  A
O9          Zr43   2.442   1_655  S
O9           C20   1.293       .  A
O10         Zr16   2.412       .  S
O10          C21   1.288       .  A
O11         Zr16   2.417   1_455  S
O11          C22   1.289       .  A
O12         Zr46   2.456       .  S
O12          C22   1.296       .  A
O13         Zr45   2.452       .  S
O13          C21   1.295       .  A
O14         Zr16   2.449       .  S
O14          C20   1.294       .  A
O15         Zr16   2.452       .  S
O15          C19   1.295       .  A
Zr16         O17   2.334   1_655  S
Zr16         O18   2.334       .  S
Zr16         O26   2.339   1_655  S
Zr16         O24   2.341       .  S
O17         Zr43   2.330       .  S
O17         Zr46   2.346       .  S
O18         Zr44   2.332   1_655  S
O18         Zr45   2.347       .  S
C19        C2066   1.494       .  S
C20        C1945   1.491       .  S
C21        C1890   1.476       .  S
C22        C1857   1.479       .  S
H23          O24   0.965       .  S
O24         Zr43   2.337   1_655  S
O24         Zr45   2.351       .  S
H25          O26   0.965       .  S
O26         Zr44   2.340       .  S
O26         Zr46   2.352       .  S
O27         Zr43   2.436       .  S
O27          C50   1.292       .  A
O28         Zr44   2.446       .  S
O28          C51   1.294       .  A
O29         Zr45   2.459       .  S
O29          C52   1.296       .  A
O30         Zr46   2.456       .  S
O30          C53   1.296       .  A
O31         Zr46   2.454       .  S
O31          C54   1.296       .  A
O32         Zr45   2.459       .  S
O32          C55   1.297       .  A
O33         Zr47   2.415   1_655  S
O33          C56   1.289       .  A
O34         Zr47   2.414       .  S
O34          C57   1.289       .  A
O35         Zr45   2.462       .  S
O35          C56   1.297       .  A
O36         Zr46   2.472       .  S
O36          C57   1.299       .  A
O37         Zr43   2.414   1_655  S
O37          C52   1.288       .  A
O38         Zr44   2.419   1_655  S
O38          C55   1.290       .  A
O39         Zr44   2.411       .  S
O39          C54   1.288       .  A
O40         Zr43   2.414       .  S
O40          C53   1.289       .  A
O41         Zr47   2.457       .  S
O41          C50   1.296       .  A
O42         Zr47   2.455       .  S
O42          C51   1.296       .  A
Zr43         O49   2.336   1_455  S
Zr43         O61   2.338       .  S
Zr44         O48   2.339       .  S
Zr44         O59   2.340   1_455  S
Zr45         O49   2.346       .  S
Zr45         O59   2.347       .  S
Zr46         O48   2.347       .  S
Zr46         O61   2.345       .  S
Zr47         O48   2.339       .  S
Zr47         O49   2.336   1_455  S
Zr47         O61   2.338       .  S
Zr47         O59   2.341   1_455  S
C50        C1989   1.492       .  S
C51        C1967   1.495       .  S
C52        C1835   1.483       .  S
C53        C1769   1.480       .  S
C54        C1813   1.476       .  S
C55        C1802   1.485       .  S
C56        C1923   1.486       .  S
C57        C1901   1.487       .  S
H58          O59   0.965       .  S
H60          O61   0.965       .  S
N62          C66   1.359   1_455  A
N62          C63   1.360       .  A
N62        C2000   1.446       .  S
C63          C64   1.382       .  A
C63        C1747   1.474       .  S
C64          C65   1.368   1_455  A
C64          H67   1.082       .  S
C65          C66   1.381       .  A
C65          H68   1.082       .  S
C66        C1736   1.473       .  S
N69          C73   1.356       .  A
N69          C70   1.360   1_655  A
N69        C1978   1.447       .  S
C70          C71   1.385       .  A
C70        C1681   1.476       .  S
C71          C72   1.369   1_455  A
C71          H74   1.082       .  S
C72          C73   1.379       .  A
C72          H75   1.082       .  S
C73        C1714   1.465       .  S
N76          C80   1.360       .  A
N76          C77   1.359       .  A
N76        C1956   1.447       .  S
C77          C78   1.381       .  A
C77        C1659   1.472       .  S
C78          C79   1.368       .  A
C78          H81   1.082       .  S
C79          C80   1.383       .  A
C79          H82   1.082       .  S
C80        C1637   1.476       .  S
O83        Zr119   2.459   1_545  S
O83          C94   1.297   1_455  A
O84        Zr118   2.452   1_545  S
O84          C95   1.296       .  A
O85         Zr91   2.441   1_655  S
O85          C96   1.293       .  A
O86         Zr91   2.436       .  S
O86          C97   1.292       .  A
O87        Zr121   2.444   1_545  S
O87          C97   1.294       .  A
O88        Zr120   2.447   1_545  S
O88          C96   1.294       .  A
O89         Zr91   2.415       .  S
O89          C95   1.289       .  A
O90         Zr91   2.416   1_655  S
O90          C94   1.289       .  A
Zr91         O92   2.340       .  S
Zr91         O93   2.334   1_455  S
Zr91        O101   2.340       .  S
Zr91         O99   2.339   1_455  S
O92        Zr118   2.350   1_545  S
O92        Zr121   2.338   1_545  S
O93        Zr119   2.348   1_645  S
O93        Zr120   2.335   1_545  S
C94        C2033   1.482       .  S
C95        C1703   1.480   1_455  S
C96        C1593   1.490       .  S
C97        C1615   1.487       .  S
H98          O99   0.965       .  S
O99        Zr118   2.348   1_645  S
O99        Zr120   2.335   1_545  S
H100        O101   0.965       .  S
O101       Zr119   2.351   1_545  S
O101       Zr121   2.341   1_545  S
O102       Zr118   2.454       .  S
O102        C125   1.295       .  A
O103       Zr119   2.458       .  S
O103        C126   1.296       .  A
O104       Zr120   2.414       .  S
O104        C127   1.289       .  A
O105       Zr121   2.425       .  S
O105        C128   1.291       .  A
O106       Zr121   2.415       .  S
O106        C129   1.289       .  A
O107       Zr120   2.406       .  S
O107        C130   1.287       .  A
O108       Zr122   2.435   1_655  S
O108        C131   1.292       .  A
O109       Zr122   2.436       .  S
O109        C132   1.292       .  A
O110       Zr120   2.446       .  S
O110        C131   1.294       .  A
O111       Zr121   2.439       .  S
O111        C132   1.292       .  A
O112       Zr118   2.462   1_655  S
O112        C127   1.297       .  A
O113       Zr119   2.464   1_655  S
O113        C130   1.298       .  A
O114       Zr119   2.463       .  S
O114        C129   1.297       .  A
O115       Zr118   2.460       .  S
O115        C128   1.297       .  A
O116       Zr122   2.412       .  S
O116        C125   1.288       .  A
O117       Zr122   2.404       .  S
O117        C126   1.287       .  A
Zr118       O124   2.343   1_455  S
Zr118       O136   2.346       .  S
Zr119       O123   2.344       .  S
Zr119       O134   2.348   1_455  S
Zr120       O124   2.331       .  S
Zr120       O134   2.336       .  S
Zr121       O123   2.334       .  S
Zr121       O136   2.335       .  S
Zr122       O123   2.330       .  S
Zr122       O124   2.329   1_455  S
Zr122       O136   2.330       .  S
Zr122       O134   2.334   1_455  S
C125       C1758   1.481       .  S
C126       C1670   1.480       .  S
C127       C1472   1.483       .  S
C128       C1494   1.480       .  S
C129       C1505   1.485       .  S
C130       C1538   1.483       .  S
C131       C1571   1.488       .  S
C132       C1549   1.486       .  S
H133        O134   0.965       .  S
H135        O136   0.965       .  S
N137        C141   1.359       .  A
N137        C138   1.359       .  A
N137       C1626   1.444       .  S
C138        C139   1.383       .  A
C138       C1439   1.476       .  S
C139        C140   1.370       .  A
C139        H142   1.082       .  S
C140        C141   1.382       .  A
C140        H143   1.082       .  S
C141       C1824   1.476       .  S
N144        C148   1.359       .  A
N144        C145   1.360       .  A
N144       C1604   1.444       .  S
C145        C146   1.383       .  A
C145       C1428   1.479       .  S
C146        C147   1.370       .  A
C146        H149   1.082       .  S
C147        C148   1.381       .  A
C147        H150   1.082       .  S
C148       C1791   1.474       .  S
N151        C155   1.357       .  A
N151        C152   1.358       .  A
N151       C1582   1.440       .  S
C152        C153   1.383       .  A
C152       C1846   1.477       .  S
C153        C154   1.371       .  A
C153        H156   1.082       .  S
C154        C155   1.381       .  A
C154        H157   1.082       .  S
C155       C1395   1.475       .  S
N158        C162   1.358       .  A
N158        C159   1.358       .  A
N158       C1560   1.445       .  S
C159        C160   1.381       .  A
C159       C1780   1.472       .  S
C160        C161   1.372       .  A
C160        H163   1.082       .  S
C161        C162   1.381       .  A
C161        H164   1.082       .  S
C162       C1373   1.472       .  S
N165        C169   1.358       .  A
N165        C166   1.360       .  A
N165       C1362   1.445       .  S
C166        C167   1.384       .  A
C166       C1340   1.478       .  S
C167        C168   1.367       .  A
C167        H170   1.082       .  S
C168        C169   1.380       .  A
C168        H171   1.082       .  S
C169       C1527   1.469       .  S
O172       Zr208   2.466       .  S
O172        C183   1.298       .  A
O173       Zr207   2.463       .  S
O173        C184   1.297       .  A
O174       Zr180   2.455       .  S
O174        C185   1.296       .  A
O175       Zr180   2.459       .  S
O175        C186   1.296       .  A
O176       Zr210   2.451       .  S
O176        C186   1.294       .  A
O177       Zr209   2.431       .  S
O177        C185   1.291       .  A
O178       Zr180   2.414       .  S
O178        C184   1.289       .  A
O179       Zr180   2.414   1_545  S
O179        C183   1.289       .  A
Zr180       O181   2.335       .  S
Zr180       O182   2.337   1_565  S
Zr180       O190   2.338   1_565  S
Zr180       O188   2.338       .  S
O181       Zr207   2.349       .  S
O181       Zr210   2.336       .  S
O182       Zr208   2.344       .  S
O182       Zr209   2.334   1_545  S
C183       C1450   1.486       .  S
C184       C1384   1.484       .  S
C185       C1274   1.489       .  S
C186       C1307   1.497       .  S
H187        O188   0.965       .  S
O188       Zr207   2.350       .  S
O188       Zr209   2.340       .  S
H189        O190   0.965       .  S
O190       Zr208   2.351       .  S
O190       Zr210   2.338   1_545  S
O191       Zr207   2.462       .  S
O191        C214   1.297       .  A
O192       Zr208   2.463       .  S
O192        C215   1.298       .  A
O193       Zr209   2.413       .  S
O193        C216   1.289       .  A
O194       Zr210   2.410       .  S
O194        C217   1.288       .  A
O195       Zr210   2.417   1_545  S
O195        C218   1.289       .  A
O196       Zr209   2.420   1_545  S
O196        C219   1.290       .  A
O197       Zr211   2.452       .  S
O197        C220   1.295       .  A
O198       Zr211   2.443       .  S
O198        C221   1.293       .  A
O199       Zr209   2.441       .  S
O199        C220   1.293       .  A
O200       Zr210   2.444       .  S
O200        C221   1.293       .  A
O201       Zr207   2.455       .  S
O201        C216   1.296       .  A
O202       Zr208   2.461       .  S
O202        C219   1.297       .  A
O203       Zr208   2.460       .  S
O203        C218   1.297       .  A
O204       Zr207   2.461       .  S
O204        C217   1.297       .  A
O205       Zr211   2.423       .  S
O205        C214   1.290       .  A
O206       Zr211   2.412   1_545  S
O206        C215   1.289       .  A
Zr207       O213   2.349       .  S
Zr207       O225   2.350       .  S
Zr208       O212   2.348       .  S
Zr208       O223   2.352       .  S
Zr209       O213   2.335       .  S
Zr209       O223   2.333   1_565  S
Zr210       O212   2.333   1_565  S
Zr210       O225   2.342       .  S
Zr211       O212   2.340   1_565  S
Zr211       O213   2.333       .  S
Zr211       O225   2.339       .  S
Zr211       O223   2.340   1_565  S
C214       C1406   1.484       .  S
C215       C1417   1.482       .  S
C216       C1197   1.482       .  S
C217       C1241   1.482       .  S
C218       C1219   1.485       .  S
C219       C1175   1.487       .  S
C220       C1351   1.493       .  S
C221       C1285   1.490       .  S
H222        O223   0.964       .  S
H224        O225   0.964       .  S
N226        C230   1.358       .  A
N226        C227   1.359   1_565  A
N226       C1318   1.444       .  S
C227        C228   1.383       .  A
C227       C1483   1.475       .  S
C228        C229   1.370   1_545  A
C228        H231   1.083       .  S
C229        C230   1.382       .  A
C229        H232   1.082       .  S
C230       C1164   1.474       .  S
N233        C237   1.357       .  A
N233        C234   1.358       .  A
N233       C1296   1.445       .  S
C234        C235   1.382       .  A
C234       C1131   1.471       .  S
C235        C236   1.370       .  A
C235        H238   1.082       .  S
C236        C237   1.381       .  A
C236        H239   1.082   1_565  S
C237       C1461   1.471   1_565  S
N240        C244   1.359       .  A
N240        C241   1.361       .  A
N240       C1263   1.443       .  S
C241        C242   1.384       .  A
C241       C1109   1.481       .  S
C242        C243   1.369       .  A
C242        H245   1.082       .  S
C243        C244   1.381       .  A
C243        H246   1.082       .  S
C244       C1516   1.476   1_565  S
O247       Zr283   2.461   1_554  S
O247        C258   1.297       .  A
O248       Zr282   2.452   1_554  S
O248        C259   1.295       .  A
O249       Zr255   2.448   1_545  S
O249        C260   1.294       .  A
O250       Zr255   2.441       .  S
O250        C261   1.293       .  A
O251       Zr285   2.444   1_554  S
O251        C261   1.294       .  A
O252       Zr284   2.443   1_554  S
O252        C260   1.293       .  A
O253       Zr255   2.419       .  S
O253        C259   1.290       .  A
O254       Zr255   2.411       .  S
O254        C258   1.288       .  A
Zr255       O256   2.338       .  S
Zr255       O257   2.334   1_565  S
Zr255       O265   2.342       .  S
Zr255       O263   2.336   1_565  S
O256       Zr282   2.348   1_554  S
O256       Zr285   2.336   1_554  S
O257       Zr283   2.347   1_544  S
O257       Zr284   2.335   1_554  S
C258       C1329   1.483       .  S
C259       C1120   1.480       .  S
C260       C1087   1.485       .  S
C261       C1076   1.489       .  S
H262        O263   0.965       .  S
O263       Zr282   2.349   1_544  S
O263       Zr284   2.337   1_554  S
H264        O265   0.965       .  S
O265       Zr283   2.347   1_554  S
O265       Zr285   2.337   1_554  S
O266       Zr282   2.457       .  S
O266        C289   1.296       .  A
O267       Zr283   2.454       .  S
O267        C290   1.296       .  A
O268       Zr284   2.407       .  S
O268        C291   1.287       .  A
O269       Zr285   2.413       .  S
O269        C292   1.288       .  A
O270       Zr285   2.419       .  S
O270        C293   1.290       .  A
O271       Zr284   2.416       .  S
O271        C294   1.289       .  A
O272       Zr286   2.443   1_545  S
O272        C295   1.293       .  A
O273       Zr286   2.442       .  S
O273        C296   1.293       .  A
O274       Zr284   2.444       .  S
O274        C295   1.293       .  A
O275       Zr285   2.443       .  S
O275        C296   1.293       .  A
O276       Zr282   2.461   1_545  S
O276        C291   1.297       .  A
O277       Zr283   2.460   1_545  S
O277        C294   1.297       .  A
O278       Zr283   2.460       .  S
O278        C293   1.297       .  A
O279       Zr282   2.461       .  S
O279        C292   1.297       .  A
O280       Zr286   2.427       .  S
O280        C289   1.291       .  A
O281       Zr286   2.417       .  S
O281        C290   1.290       .  A
Zr282       O288   2.345   1_565  S
Zr282       O300   2.346       .  S
Zr283       O287   2.347       .  S
Zr283       O298   2.352   1_565  S
Zr284       O288   2.335       .  S
Zr284       O298   2.335       .  S
Zr285       O287   2.334       .  S
Zr285       O300   2.339       .  S
Zr286       O287   2.338       .  S
Zr286       O288   2.332   1_565  S
Zr286       O300   2.336       .  S
Zr286       O298   2.340   1_565  S
C289       C1153   1.487       .  S
C290       C1142   1.479       .  S
C291        C999   1.481       .  S
C292        C966   1.483       .  S
C293        C977   1.484       .  S
C294        C933   1.484       .  S
C295       C1032   1.488       .  S
C296       C1043   1.488       .  S
H297        O298   0.965       .  S
H299        O300   0.965       .  S
N301        C305   1.361       .  A
N301        C302   1.361       .  A
N301       C1098   1.448       .  S
C302        C303   1.382       .  A
C302       C1186   1.477       .  S
C303        C304   1.369       .  A
C303        H306   1.082       .  S
C304        C305   1.381       .  A
C304        H307   1.082       .  S
C305        C911   1.476       .  S
N308        C312   1.357       .  A
N308        C309   1.358       .  A
N308       C1065   1.445       .  S
C309        C310   1.382       .  A
C309        C889   1.471       .  S
C310        C311   1.369       .  A
C310        H313   1.082       .  S
C311        C312   1.382       .  A
C311        H314   1.082       .  S
C312       C1208   1.471       .  S
N315        C319   1.357       .  A
N315        C316   1.358       .  A
N315       C1054   1.444       .  S
C316        C317   1.381       .  A
C316        C867   1.473       .  S
C317        C318   1.371       .  A
C317        H320   1.082       .  S
C318        C319   1.382       .  A
C318        H321   1.082       .  S
C319       C1252   1.472       .  S
N322        C326   1.360       .  A
N322        C323   1.361       .  A
N322       C1021   1.444       .  S
C323        C324   1.382       .  A
C323       C1230   1.480       .  S
C324        C325   1.369       .  A
C324        H327   1.082       .  S
C325        C326   1.383       .  A
C325        H328   1.082       .  S
C326        C845   1.479       .  S
O329       Zr365   2.455   1_554  S
O329        C340   1.296       .  A
O330       Zr364   2.458   1_654  S
O330        C341   1.296       .  A
O331       Zr337   2.444       .  S
O331        C342   1.293       .  A
O332       Zr337   2.440   1_655  S
O332        C343   1.293       .  A
O333       Zr367   2.458   1_554  S
O333        C343   1.296       .  A
O334       Zr366   2.455   1_554  S
O334        C342   1.296       .  A
O335       Zr337   2.416   1_655  S
O335        C341   1.289       .  A
O336       Zr337   2.412       .  S
O336        C340   1.288       .  A
Zr337       O338   2.335   1_455  S
Zr337       O339   2.335       .  S
Zr337       O347   2.340   1_455  S
Zr337       O345   2.338       .  S
O338       Zr364   2.343   1_654  S
O338       Zr367   2.334   1_554  S
O339       Zr365   2.346   1_554  S
O339       Zr366   2.335   1_554  S
C340       C2022   1.482       .  S
C341       C1648   1.484       .  S
C342        C801   1.494       .  S
C343        C823   1.494       .  S
H344        O345   0.965       .  S
O345       Zr364   2.352   1_554  S
O345       Zr366   2.343   1_554  S
H346        O347   0.965       .  S
O347       Zr365   2.348   1_654  S
O347       Zr367   2.337   1_554  S
O348       Zr364   2.457       .  S
O348        C371   1.296       .  A
O349       Zr365   2.450       .  S
O349        C372   1.295       .  A
O350       Zr366   2.424       .  S
O350        C373   1.291       .  A
O351       Zr367   2.418       .  S
O351        C374   1.290       .  A
O352       Zr367   2.418       .  S
O352        C375   1.290       .  A
O353       Zr366   2.429       .  S
O353        C376   1.292       .  A
O354       Zr368   2.450       .  S
O354        C377   1.295       .  A
O355       Zr368   2.448   1_655  S
O355        C378   1.294       .  A
O356       Zr366   2.445       .  S
O356        C377   1.294       .  A
O357       Zr367   2.444       .  S
O357        C378   1.294       .  A
O358       Zr364   2.452       .  S
O358        C373   1.295       .  A
O359       Zr365   2.452       .  S
O359        C376   1.296       .  A
O360       Zr365   2.456   1_655  S
O360        C375   1.296       .  A
O361       Zr364   2.453   1_655  S
O361        C374   1.296       .  A
O362       Zr368   2.415       .  S
O362        C371   1.289       .  A
O363       Zr368   2.420       .  S
O363        C372   1.290       .  A
Zr364       O370   2.346       .  S
Zr364       O382   2.344   1_455  S
Zr365       O369   2.344   1_455  S
Zr365       O380   2.351       .  S
Zr366       O370   2.337       .  S
Zr366       O380   2.344       .  S
Zr367       O369   2.336       .  S
Zr367       O382   2.339       .  S
Zr368       O369   2.336   1_455  S
Zr368       O370   2.335       .  S
Zr368       O382   2.338   1_455  S
Zr368       O380   2.338       .  S
C371       C1725   1.482       .  S
C372       C1692   1.481       .  S
C373        C713   1.484       .  S
C374        C680   1.482       .  S
C375        C691   1.485       .  S
C376        C735   1.485       .  S
C377        C779   1.493       .  S
C378        C757   1.489       .  S
H379        O380   0.965       .  S
H381        O382   0.965       .  S
N383        C387   1.363       .  A
N383        C384   1.360       .  A
N383        C834   1.449       .  S
C384        C385   1.380       .  A
C384       C1879   1.472       .  S
C385        C386   1.365       .  A
C385        H388   1.083       .  S
C386        C387   1.383       .  A
C386        H389   1.082       .  S
C387        C647   1.478       .  S
N390        C394   1.362       .  A
N390        C391   1.359       .  A
N390        C812   1.445       .  S
C391        C392   1.381       .  A
C391        C636   1.474       .  S
C392        C393   1.368       .  A
C392        H395   1.082       .  S
C393        C394   1.384       .  A
C393        H396   1.082       .  S
C394       C1868   1.479       .  S
N397        C401   1.361       .  A
N397        C398   1.362       .  A
N397        C790   1.449       .  S
C398        C399   1.382       .  A
C398        C603   1.477       .  S
C399        C400   1.369       .  A
C399        H402   1.082       .  S
C400        C401   1.381       .  A
C400        H403   1.082       .  S
C401       C1912   1.474       .  S
N404        C408   1.362       .  A
N404        C405   1.360       .  A
N404        C768   1.443       .  S
C405        C406   1.382       .  A
C405       C1934   1.480       .  S
C406        C407   1.369       .  A
C406        H409   1.082       .  S
C407        C408   1.383       .  A
C407        H410   1.082       .  S
C408        C592   1.482       .  S
N411        C415   1.359       .  A
N411        C412   1.358       .  A
N411        C559   1.443       .  S
C412        C413   1.381       .  A
C412        C746   1.473       .  S
C413        C414   1.371       .  A
C413        H416   1.082       .  S
C414        C415   1.382       .  A
C414        H417   1.082       .  S
C415       C1010   1.476       .  S
O418       Zr454   2.468       .  S
O418        C429   1.298       .  A
O419       Zr453   2.464       .  S
O419        C430   1.297       .  A
O420       Zr426   2.445       .  S
O420        C431   1.294       .  A
O421       Zr426   2.444       .  S
O421        C432   1.294       .  A
O422       Zr456   2.452       .  S
O422        C432   1.295       .  A
O423       Zr455   2.440       .  S
O423        C431   1.293       .  A
O424       Zr426   2.413       .  S
O424        C430   1.288       .  A
O425       Zr426   2.410   1_554  S
O425        C429   1.288       .  A
Zr426       O427   2.335       .  S
Zr426       O428   2.336   1_556  S
Zr426       O436   2.339   1_556  S
Zr426       O434   2.337       .  S
O427       Zr453   2.346       .  S
O427       Zr456   2.341       .  S
O428       Zr454   2.345       .  S
O428       Zr455   2.337   1_554  S
C429        C922   1.483       .  S
C430        C856   1.482       .  S
C431        C570   1.489       .  S
C432        C493   1.493       .  S
H433        O434   0.965       .  S
O434       Zr453   2.346       .  S
O434       Zr455   2.338       .  S
H435        O436   0.965       .  S
O436       Zr454   2.347       .  S
O436       Zr456   2.342   1_554  S
O437       Zr453   2.457       .  S
O437        C460   1.296       .  A
O438       Zr454   2.459       .  S
O438        C461   1.297       .  A
O439       Zr455   2.416       .  S
O439        C462   1.289       .  A
O440       Zr456   2.422       .  S
O440        C463   1.290       .  A
O441       Zr456   2.424   1_554  S
O441        C464   1.290       .  A
O442       Zr455   2.415   1_554  S
O442        C465   1.289       .  A
O443       Zr457   2.449       .  S
O443        C466   1.294       .  A
O444       Zr457   2.448       .  S
O444        C467   1.294       .  A
O445       Zr455   2.446       .  S
O445        C466   1.294       .  A
O446       Zr456   2.454       .  S
O446        C467   1.295       .  A
O447       Zr453   2.452       .  S
O447        C462   1.295       .  A
O448       Zr454   2.455       .  S
O448        C465   1.296       .  A
O449       Zr454   2.450       .  S
O449        C464   1.295       .  A
O450       Zr453   2.453       .  S
O450        C463   1.296       .  A
O451       Zr457   2.413       .  S
O451        C460   1.288       .  A
O452       Zr457   2.406   1_554  S
O452        C461   1.287       .  A
Zr453       O459   2.344       .  S
Zr453       O471   2.351       .  S
Zr454       O458   2.349       .  S
Zr454       O469   2.350       .  S
Zr455       O459   2.331       .  S
Zr455       O469   2.335   1_556  S
Zr456       O458   2.335   1_556  S
Zr456       O471   2.341       .  S
Zr457       O458   2.335   1_556  S
Zr457       O459   2.329       .  S
Zr457       O471   2.340       .  S
Zr457       O469   2.339   1_556  S
C460        C878   1.481       .  S
C461        C900   1.480       .  S
C462        C614   1.482       .  S
C463        C581   1.484       .  S
C464        C658   1.477       .  S
C465        C625   1.483       .  S
C466        C526   1.492       .  S
C467        C537   1.496       .  S
H468        O469   0.965       .  S
H470        O471   0.965       .  S
N472        C476   1.359   1_556  A
N472        C473   1.360       .  A
N472        C548   1.446       .  S
C473        C474   1.383       .  A
C473        C988   1.477       .  S
C474        C475   1.368       .  A
C474        H477   1.082       .  S
C475        C476   1.382   1_556  A
C475        H478   1.083       .  S
C476        C669   1.473       .  S
N479        C483   1.358   1_556  A
N479        C480   1.358       .  A
N479        C515   1.444       .  S
C480        C481   1.381       .  A
C480        C955   1.472       .  S
C481        C482   1.370       .  A
C481        H484   1.082       .  S
C482        C483   1.383   1_556  A
C482        H485   1.082       .  S
C483        C724   1.475       .  S
N486        C490   1.361       .  A
N486        C487   1.358       .  A
N486        C504   1.444       .  S
C487        C488   1.379       .  A
C487        C702   1.473       .  S
C488        C489   1.370       .  A
C488        H491   1.082       .  S
C489        C490   1.384       .  A
C489        H492   1.082       .  S
C490        C944   1.480       .  S
C493        C494   1.410       .  A
C493        C498   1.410       .  A
C494        C495   1.401       .  A
C494        H507   1.083       .  S
C495        C496   1.400       .  A
C495        H508   1.083       .  S
C496        C497   1.401       .  A
C496        C499   1.448       .  S
C497        C498   1.403       .  A
C497        H509   1.083   1_556  S
C498        H510   1.083   1_556  S
C499        C500   1.211       .  T
C500        C501   1.447       .  S
C501        C502   1.400       .  A
C501        C506   1.403   1_556  A
C502        C503   1.398       .  A
C502        H511   1.083       .  S
C503        C504   1.405       .  A
C503        H512   1.083       .  S
C504        C505   1.406   1_556  A
C505        C506   1.404       .  A
C505        H513   1.082       .  S
C506        H514   1.083       .  S
C515        C516   1.406   1_556  A
C515        C520   1.405       .  A
C516        C517   1.403       .  A
C516        H529   1.083       .  S
C517        C518   1.403   1_554  A
C517        H530   1.083       .  S
C518        C519   1.401       .  A
C518        C521   1.448       .  S
C519        C520   1.399       .  A
C519        H531   1.083       .  S
C520        H532   1.082       .  S
C521        C522   1.211       .  T
C522        C523   1.448       .  S
C523        C524   1.401   1_556  A
C523        C528   1.401       .  A
C524        C525   1.401       .  A
C524        H533   1.083       .  S
C525        C526   1.410   1_554  A
C525        H534   1.083       .  S
C526        C527   1.410       .  A
C527        C528   1.402       .  A
C527        H535   1.083       .  S
C528        H536   1.083       .  S
C537        C538   1.411       .  A
C537        C542   1.410       .  A
C538        C539   1.404       .  A
C538        H551   1.083       .  S
C539        C540   1.402       .  A
C539        H552   1.083       .  S
C540        C541   1.401   1_556  A
C540        C543   1.453       .  S
C541        C542   1.403   1_554  A
C541        H553   1.083       .  S
C542        H554   1.083   1_556  S
C543        C544   1.214   1_556  T
C544        C545   1.453   1_554  S
C545        C546   1.404   1_556  A
C545        C550   1.402       .  A
C546        C547   1.404       .  A
C546        H555   1.083       .  S
C547        C548   1.406   1_554  A
C547        H556   1.083       .  S
C548        C549   1.405       .  A
C549        C550   1.402       .  A
C549        H557   1.083       .  S
C550        H558   1.083       .  S
C559        C560   1.406   1_556  A
C559        C564   1.405       .  A
C560        C561   1.402       .  A
C560        H573   1.082       .  S
C561        C562   1.402   1_554  A
C561        H574   1.083       .  S
C562        C563   1.401       .  A
C562        C565   1.446       .  S
C563        C564   1.400       .  A
C563        H575   1.083       .  S
C564        H576   1.082       .  S
C565        C566   1.209       .  T
C566        C567   1.445       .  S
C567        C568   1.400       .  A
C567        C572   1.401       .  A
C568        C569   1.400       .  A
C568        H577   1.083       .  S
C569        C570   1.409       .  A
C569        H578   1.083       .  S
C570        C571   1.409       .  A
C571        C572   1.401       .  A
C571        H579   1.083       .  S
C572        H580   1.083       .  S
C581        C582   1.408       .  A
C581        C586   1.410       .  A
C582        C583   1.402       .  A
C582        H595   1.083       .  S
C583        C584   1.402       .  A
C583        H596   1.083       .  S
C584        C585   1.396       .  A
C584        C587   1.440       .  S
C585        C586   1.395       .  A
C585        H597   1.084       .  S
C586        H598   1.083       .  S
C587        C588   1.206       .  T
C588        C589   1.441       .  S
C589        C590   1.402       .  A
C589        C594   1.398       .  A
C590        C591   1.401       .  A
C590        H599   1.083       .  S
C591        C592   1.405       .  A
C591        H600   1.082       .  S
C592        C593   1.407       .  A
C593        C594   1.396       .  A
C593        H601   1.083       .  S
C594        H602   1.084       .  S
C603        C604   1.404       .  A
C603        C608   1.405       .  A
C604        C605   1.400       .  A
C604        H617   1.083       .  S
C605        C606   1.401       .  A
C605        H618   1.083       .  S
C606        C607   1.398       .  A
C606        C609   1.436       .  S
C607        C608   1.394       .  A
C607        H619   1.084       .  S
C608        H620   1.083       .  S
C609        C610   1.204       .  T
C610        C611   1.436       .  S
C611        C612   1.395       .  A
C611        C616   1.402       .  A
C612        C613   1.393       .  A
C612        H621   1.084       .  S
C613        C614   1.410       .  A
C613        H622   1.083       .  S
C614        C615   1.407       .  A
C615        C616   1.400       .  A
C615        H623   1.083       .  S
C616        H624   1.083       .  S
C625        C626   1.407       .  A
C625        C630   1.411       .  A
C626        C627   1.402       .  A
C626        H639   1.083       .  S
C627        C628   1.403       .  A
C627        H640   1.083       .  S
C628        C629   1.393       .  A
C628        C631   1.435       .  S
C629        C630   1.391       .  A
C629        H641   1.084       .  S
C630        H642   1.083       .  S
C631        C632   1.203       .  T
C632        C633   1.434       .  S
C633        C634   1.402       .  A
C633        C638   1.396       .  A
C634        C635   1.401       .  A
C634        H643   1.083       .  S
C635        C636   1.405       .  A
C635        H644   1.083       .  S
C636        C637   1.404       .  A
C637        C638   1.392       .  A
C637        H645   1.083       .  S
C638        H646   1.084       .  S
C647        C648   1.407       .  A
C647        C652   1.404       .  A
C648        C649   1.394       .  A
C648        H661   1.083       .  S
C649        C650   1.397       .  A
C649        H662   1.084       .  S
C650        C651   1.402       .  A
C650        C653   1.438       .  S
C651        C652   1.401       .  A
C651        H663   1.083       .  S
C652        H664   1.082       .  S
C653        C654   1.205       .  T
C654        C655   1.438       .  S
C655        C656   1.398       .  A
C655        C660   1.401       .  A
C656        C657   1.396       .  A
C656        H665   1.084       .  S
C657        C658   1.408       .  A
C657        H666   1.083       .  S
C658        C659   1.405       .  A
C659        C660   1.399       .  A
C659        H667   1.083       .  S
C660        H668   1.083       .  S
C669        C670   1.405       .  A
C669        C674   1.403   1_554  A
C670        C671   1.394       .  A
C670        H683   1.084       .  S
C671        C672   1.398       .  A
C671        H684   1.084       .  S
C672        C673   1.402   1_554  A
C672        C675   1.436       .  S
C673        C674   1.400       .  A
C673        H685   1.083       .  S
C674        H686   1.083       .  S
C675        C676   1.204   1_554  T
C676        C677   1.436       .  S
C677        C678   1.401       .  A
C677        C682   1.396       .  A
C678        C679   1.399       .  A
C678        H687   1.083       .  S
C679        C680   1.407       .  A
C679        H688   1.083       .  S
C680        C681   1.410       .  A
C681        C682   1.394       .  A
C681        H689   1.083       .  S
C682        H690   1.084       .  S
C691        C692   1.410       .  A
C691        C696   1.408       .  A
C692        C693   1.391       .  A
C692        H705   1.083       .  S
C693        C694   1.394       .  A
C693        H706   1.084       .  S
C694        C695   1.404       .  A
C694        C697   1.440       .  S
C695        C696   1.405       .  A
C695        H707   1.083       .  S
C696        H708   1.083       .  S
C697        C698   1.206       .  T
C698        C699   1.440       .  S
C699        C700   1.399       .  A
C699        C704   1.402   1_556  A
C700        C701   1.396       .  A
C700        H709   1.083       .  S
C701        C702   1.403       .  A
C701        H710   1.083       .  S
C702        C703   1.403   1_556  A
C703        C704   1.401       .  A
C703        H711   1.083       .  S
C704        H712   1.083       .  S
C713        C714   1.408       .  A
C713        C718   1.410       .  A
C714        C715   1.403       .  A
C714        H727   1.083       .  S
C715        C716   1.403       .  A
C715        H728   1.083       .  S
C716        C717   1.395       .  A
C716        C719   1.438   1_556  S
C717        C718   1.392       .  A
C717        H729   1.084       .  S
C718        H730   1.083       .  S
C719        C720   1.205       .  T
C720        C721   1.438       .  S
C721        C722   1.397       .  A
C721        C726   1.403   1_554  A
C722        C723   1.394       .  A
C722        H731   1.084       .  S
C723        C724   1.404       .  A
C723        H732   1.083       .  S
C724        C725   1.404   1_554  A
C725        C726   1.401       .  A
C725        H733   1.083       .  S
C726        H734   1.083       .  S
C735        C736   1.408       .  A
C735        C740   1.410       .  A
C736        C737   1.401   1_556  A
C736        H749   1.083   1_556  S
C737        C738   1.401   1_554  A
C737        H750   1.083       .  S
C738        C739   1.397       .  A
C738        C741   1.439       .  S
C739        C740   1.396       .  A
C739        H751   1.084       .  S
C740        H752   1.083       .  S
C741        C742   1.206       .  T
C742        C743   1.439   1_556  S
C743        C744   1.403   1_554  A
C743        C748   1.398       .  A
C744        C745   1.401       .  A
C744        H753   1.083       .  S
C745        C746   1.403       .  A
C745        H754   1.083       .  S
C746        C747   1.403   1_556  A
C747        C748   1.395       .  A
C747        H755   1.083       .  S
C748        H756   1.084       .  S
C757        C758   1.409       .  A
C757        C762   1.409       .  A
C758        C759   1.402       .  A
C758        H771   1.083       .  S
C759        C760   1.401       .  A
C759        H772   1.083       .  S
C760        C761   1.399       .  A
C760        C763   1.445       .  S
C761        C762   1.400       .  A
C761        H773   1.084       .  S
C762        H774   1.083       .  S
C763        C764   1.209       .  T
C764        C765   1.445       .  S
C765        C766   1.402       .  A
C765        C770   1.401       .  A
C766        C767   1.401       .  A
C766        H775   1.083       .  S
C767        C768   1.405       .  A
C767        H776   1.083       .  S
C768        C769   1.406       .  A
C769        C770   1.400       .  A
C769        H777   1.082       .  S
C770        H778   1.083       .  S
C779        C780   1.410       .  A
C779        C784   1.410       .  A
C780        C781   1.402       .  A
C780        H793   1.083       .  S
C781        C782   1.401       .  A
C781        H794   1.083       .  S
C782        C783   1.400       .  A
C782        C785   1.448       .  S
C783        C784   1.401       .  A
C783        H795   1.083       .  S
C784        H796   1.083       .  S
C785        C786   1.211       .  T
C786        C787   1.448       .  S
C787        C788   1.402       .  A
C787        C792   1.400       .  A
C788        C789   1.403       .  A
C788        H797   1.083       .  S
C789        C790   1.408       .  A
C789        H798   1.082       .  S
C790        C791   1.407       .  A
C791        C792   1.400       .  A
C791        H799   1.082       .  S
C792        H800   1.083       .  S
C801        C802   1.411       .  A
C801        C806   1.409       .  A
C802        C803   1.403       .  A
C802        H815   1.083       .  S
C803        C804   1.401       .  A
C803        H816   1.083       .  S
C804        C805   1.401       .  A
C804        C807   1.450       .  S
C805        C806   1.402       .  A
C805        H817   1.083       .  S
C806        H818   1.083       .  S
C807        C808   1.212       .  T
C808        C809   1.449       .  S
C809        C810   1.402       .  A
C809        C814   1.403       .  A
C810        C811   1.401       .  A
C810        H819   1.083       .  S
C811        C812   1.406       .  A
C811        H820   1.083       .  S
C812        C813   1.405       .  A
C813        C814   1.402       .  A
C813        H821   1.083       .  S
C814        H822   1.083       .  S
C823        C824   1.411       .  A
C823        C828   1.409       .  A
C824        C825   1.403       .  A
C824        H837   1.083       .  S
C825        C826   1.401       .  A
C825        H838   1.083       .  S
C826        C827   1.402       .  A
C826        C829   1.451       .  S
C827        C828   1.403       .  A
C827        H839   1.083       .  S
C828        H840   1.083       .  S
C829        C830   1.213       .  T
C830        C831   1.452       .  S
C831        C832   1.402       .  A
C831        C836   1.403       .  A
C832        C833   1.403       .  A
C832        H841   1.083       .  S
C833        C834   1.407       .  A
C833        H842   1.082       .  S
C834        C835   1.406       .  A
C835        C836   1.403       .  A
C835        H843   1.082       .  S
C836        H844   1.083       .  S
C845        C846   1.405       .  A
C845        C850   1.405       .  A
C846        C847   1.393       .  A
C846        H859   1.083       .  S
C847        C848   1.396       .  A
C847        H860   1.084       .  S
C848        C849   1.404       .  A
C848        C851   1.440       .  S
C849        C850   1.404       .  A
C849        H861   1.083       .  S
C850        H862   1.083       .  S
C851        C852   1.206       .  T
C852        C853   1.440       .  S
C853        C854   1.396       .  A
C853        C858   1.403       .  A
C854        C855   1.394       .  A
C854        H863   1.084       .  S
C855        C856   1.410       .  A
C855        H864   1.083       .  S
C856        C857   1.406       .  A
C857        C858   1.403       .  A
C857        H865   1.083       .  S
C858        H866   1.083       .  S
C867        C868   1.404       .  A
C867        C872   1.403       .  A
C868        C869   1.399       .  A
C868        H881   1.083       .  S
C869        C870   1.401       .  A
C869        H882   1.083       .  S
C870        C871   1.398       .  A
C870        C873   1.436       .  S
C871        C872   1.395       .  A
C871        H883   1.084       .  S
C872        H884   1.083       .  S
C873        C874   1.204       .  T
C874        C875   1.436       .  S
C875        C876   1.395       .  A
C875        C880   1.402       .  A
C876        C877   1.393       .  A
C876        H885   1.084       .  S
C877        C878   1.410       .  A
C877        H886   1.083       .  S
C878        C879   1.406       .  A
C879        C880   1.401       .  A
C879        H887   1.083       .  S
C880        H888   1.083       .  S
C889        C890   1.404       .  A
C889        C894   1.403       .  A
C890        C891   1.393       .  A
C890        H903   1.083       .  S
C891        C892   1.397       .  A
C891        H904   1.084       .  S
C892        C893   1.401       .  A
C892        C895   1.431       .  S
C893        C894   1.398       .  A
C893        H905   1.083       .  S
C894        H906   1.083       .  S
C895        C896   1.201       .  T
C896        C897   1.432       .  S
C897        C898   1.394       .  A
C897        C902   1.401       .  A
C898        C899   1.391       .  A
C898        H907   1.084       .  S
C899        C900   1.411       .  A
C899        H908   1.083       .  S
C900        C901   1.406       .  A
C901        C902   1.399       .  A
C901        H909   1.083       .  S
C902        H910   1.083       .  S
C911        C912   1.403       .  A
C911        C916   1.405       .  A
C912        C913   1.400       .  A
C912        H925   1.083       .  S
C913        C914   1.402       .  A
C913        H926   1.083       .  S
C914        C915   1.399       .  A
C914        C917   1.440       .  S
C915        C916   1.397       .  A
C915        H927   1.084       .  S
C916        H928   1.083       .  S
C917        C918   1.206       .  T
C918        C919   1.440       .  S
C919        C920   1.402       .  A
C919        C924   1.397       .  A
C920        C921   1.402       .  A
C920        H929   1.083       .  S
C921        C922   1.405       .  A
C921        H930   1.083       .  S
C922        C923   1.411       .  A
C923        C924   1.395       .  A
C923        H931   1.083       .  S
C924        H932   1.084       .  S
C933        C934   1.411   1_556  A
C933        C938   1.407       .  A
C934        C935   1.394   1_554  A
C934        H947   1.083       .  S
C935        C936   1.395       .  A
C935        H948   1.084   1_556  S
C936        C937   1.403       .  A
C936        C939   1.440       .  S
C937        C938   1.402       .  A
C937        H949   1.083       .  S
C938        H950   1.083       .  S
C939        C940   1.206       .  T
C940        C941   1.439       .  S
C941        C942   1.396   1_556  A
C941        C946   1.404       .  A
C942        C943   1.393       .  A
C942        H951   1.084       .  S
C943        C944   1.405   1_554  A
C943        H952   1.083       .  S
C944        C945   1.405       .  A
C945        C946   1.404       .  A
C945        H953   1.083       .  S
C946        H954   1.083       .  S
C955        C956   1.403   1_556  A
C955        C960   1.403       .  A
C956        C957   1.399       .  A
C956        H969   1.083       .  S
C957        C958   1.401   1_554  A
C957        H970   1.083       .  S
C958        C959   1.399       .  A
C958        C961   1.436       .  S
C959        C960   1.395       .  A
C959        H971   1.084       .  S
C960        H972   1.083       .  S
C961        C962   1.204       .  T
C962        C963   1.436       .  S
C963        C964   1.402       .  A
C963        C968   1.395       .  A
C964        C965   1.401       .  A
C964        H973   1.083       .  S
C965        C966   1.406       .  A
C965        H974   1.083       .  S
C966        C967   1.411   1_556  A
C967        C968   1.394   1_554  A
C967        H975   1.083       .  S
C968        H976   1.084   1_556  S
C977        C978   1.407       .  A
C977        C982   1.410       .  A
C978        C979   1.401       .  A
C978        H991   1.083   1_556  S
C979        C980   1.401       .  A
C979        H992   1.083       .  S
C980        C981   1.396       .  A
C980        C983   1.438       .  S
C981        C982   1.395       .  A
C981        H993   1.084       .  S
C982        H994   1.083       .  S
C983        C984   1.205       .  T
C984        C985   1.437       .  S
C985        C986   1.401   1_556  A
C985        C990   1.397       .  A
C986        C987   1.400       .  A
C986        H995   1.083       .  S
C987        C988   1.404   1_554  A
C987        H996   1.082       .  S
C988        C989   1.406       .  A
C989        C990   1.394       .  A
C989        H997   1.083       .  S
C990        H998   1.084       .  S
C999       C1000   1.411   1_556  A
C999       C1004   1.406       .  A
C1000      C1001   1.392   1_554  A
C1000      H1013   1.083       .  S
C1001      C1002   1.395       .  A
C1001      H1014   1.084   1_556  S
C1002      C1003   1.403       .  A
C1002      C1005   1.437       .  S
C1003      C1004   1.402       .  A
C1003      H1015   1.083       .  S
C1004      H1016   1.083       .  S
C1005      C1006   1.205       .  T
C1006      C1007   1.437       .  S
C1007      C1008   1.397       .  A
C1007      C1012   1.402   1_556  A
C1008      C1009   1.394       .  A
C1008      H1017   1.084       .  S
C1009      C1010   1.404       .  A
C1009      H1018   1.083       .  S
C1010      C1011   1.405   1_556  A
C1011      C1012   1.401       .  A
C1011      H1019   1.083       .  S
C1012      H1020   1.083       .  S
C1021      C1022   1.406       .  A
C1021      C1026   1.405       .  A
C1022      C1023   1.403       .  A
C1022      H1035   1.082       .  S
C1023      C1024   1.403       .  A
C1023      H1036   1.083       .  S
C1024      C1025   1.400       .  A
C1024      C1027   1.447       .  S
C1025      C1026   1.399       .  A
C1025      H1037   1.083       .  S
C1026      H1038   1.083       .  S
C1027      C1028   1.210       .  T
C1028      C1029   1.446       .  S
C1029      C1030   1.401       .  A
C1029      C1034   1.401       .  A
C1030      C1031   1.401       .  A
C1030      H1039   1.083       .  S
C1031      C1032   1.409       .  A
C1031      H1040   1.083       .  S
C1032      C1033   1.409       .  A
C1033      C1034   1.401       .  A
C1033      H1041   1.083       .  S
C1034      H1042   1.083       .  S
C1043      C1044   1.409       .  A
C1043      C1048   1.409       .  A
C1044      C1045   1.399       .  A
C1044      H1057   1.083       .  S
C1045      C1046   1.399       .  A
C1045      H1058   1.084       .  S
C1046      C1047   1.400       .  A
C1046      C1049   1.443       .  S
C1047      C1048   1.400       .  A
C1047      H1059   1.084       .  S
C1048      H1060   1.083       .  S
C1049      C1050   1.208       .  T
C1050      C1051   1.442       .  S
C1051      C1052   1.399       .  A
C1051      C1056   1.402       .  A
C1052      C1053   1.397       .  A
C1052      H1061   1.083       .  S
C1053      C1054   1.406       .  A
C1053      H1062   1.082       .  S
C1054      C1055   1.407       .  A
C1055      C1056   1.401       .  A
C1055      H1063   1.082       .  S
C1056      H1064   1.083       .  S
C1065      C1066   1.406       .  A
C1065      C1070   1.406       .  A
C1066      C1067   1.401       .  A
C1066      H1079   1.082       .  S
C1067      C1068   1.401       .  A
C1067      H1080   1.083       .  S
C1068      C1069   1.400       .  A
C1068      C1071   1.445       .  S
C1069      C1070   1.399       .  A
C1069      H1081   1.083       .  S
C1070      H1082   1.082       .  S
C1071      C1072   1.209       .  T
C1072      C1073   1.444       .  S
C1073      C1074   1.401       .  A
C1073      C1078   1.399       .  A
C1074      C1075   1.401       .  A
C1074      H1083   1.083       .  S
C1075      C1076   1.410       .  A
C1075      H1084   1.083       .  S
C1076      C1077   1.409       .  A
C1077      C1078   1.399       .  A
C1077      H1085   1.083       .  S
C1078      H1086   1.083       .  S
C1087      C1088   1.408       .  A
C1087      C1092   1.407       .  A
C1088      C1089   1.402       .  A
C1088      H1101   1.083       .  S
C1089      C1090   1.402       .  A
C1089      H1102   1.083       .  S
C1090      C1091   1.402       .  A
C1090      C1093   1.448       .  S
C1091      C1092   1.402       .  A
C1091      H1103   1.083       .  S
C1092      H1104   1.083       .  S
C1093      C1094   1.211       .  T
C1094      C1095   1.448       .  S
C1095      C1096   1.401       .  A
C1095      C1100   1.402       .  A
C1096      C1097   1.400       .  A
C1096      H1105   1.083       .  S
C1097      C1098   1.407       .  A
C1097      H1106   1.082       .  S
C1098      C1099   1.407       .  A
C1099      C1100   1.403       .  A
C1099      H1107   1.082       .  S
C1100      H1108   1.083       .  S
C1109      C1110   1.406       .  A
C1109      C1114   1.406       .  A
C1110      C1111   1.393       .  A
C1110      H1123   1.083       .  S
C1111      C1112   1.396       .  A
C1111      H1124   1.084       .  S
C1112      C1113   1.402       .  A
C1112      C1115   1.437       .  S
C1113      C1114   1.402       .  A
C1113      H1125   1.083   1_565  S
C1114      H1126   1.082   1_565  S
C1115      C1116   1.204       .  T
C1116      C1117   1.437       .  S
C1117      C1118   1.396       .  A
C1117      C1122   1.402       .  A
C1118      C1119   1.394       .  A
C1118      H1127   1.084   1_565  S
C1119      C1120   1.409       .  A
C1119      H1128   1.083   1_565  S
C1120      C1121   1.406       .  A
C1121      C1122   1.400       .  A
C1121      H1129   1.083       .  S
C1122      H1130   1.083       .  S
C1131      C1132   1.403   1_565  A
C1131      C1136   1.404       .  A
C1132      C1133   1.399       .  A
C1132      H1145   1.083       .  S
C1133      C1134   1.402   1_545  A
C1133      H1146   1.083       .  S
C1134      C1135   1.397       .  A
C1134      C1137   1.434       .  S
C1135      C1136   1.393       .  A
C1135      H1147   1.084       .  S
C1136      H1148   1.083       .  S
C1137      C1138   1.203       .  T
C1138      C1139   1.435       .  S
C1139      C1140   1.401       .  A
C1139      C1144   1.395       .  A
C1140      C1141   1.400       .  A
C1140      H1149   1.083       .  S
C1141      C1142   1.406       .  A
C1141      H1150   1.083       .  S
C1142      C1143   1.409   1_565  A
C1143      C1144   1.393   1_545  A
C1143      H1151   1.083       .  S
C1144      H1152   1.084   1_565  S
C1153      C1154   1.408       .  A
C1153      C1158   1.410       .  A
C1154      C1155   1.403       .  A
C1154      H1167   1.083       .  S
C1155      C1156   1.402       .  A
C1155      H1168   1.083       .  S
C1156      C1157   1.396       .  A
C1156      C1159   1.440       .  S
C1157      C1158   1.395       .  A
C1157      H1169   1.084       .  S
C1158      H1170   1.083       .  S
C1159      C1160   1.206       .  T
C1160      C1161   1.439       .  S
C1161      C1162   1.403   1_565  A
C1161      C1166   1.397       .  A
C1162      C1163   1.402       .  A
C1162      H1171   1.083       .  S
C1163      C1164   1.404   1_545  A
C1163      H1172   1.083       .  S
C1164      C1165   1.404       .  A
C1165      C1166   1.394       .  A
C1165      H1173   1.083       .  S
C1166      H1174   1.084       .  S
C1175      C1176   1.411       .  A
C1175      C1180   1.407       .  A
C1176      C1177   1.395       .  A
C1176      H1189   1.083       .  S
C1177      C1178   1.396       .  A
C1177      H1190   1.084       .  S
C1178      C1179   1.402       .  A
C1178      C1181   1.441       .  S
C1179      C1180   1.402       .  A
C1179      H1191   1.083       .  S
C1180      H1192   1.083       .  S
C1181      C1182   1.207       .  T
C1182      C1183   1.441       .  S
C1183      C1184   1.403       .  A
C1183      C1188   1.398       .  A
C1184      C1185   1.402       .  A
C1184      H1193   1.083       .  S
C1185      C1186   1.404       .  A
C1185      H1194   1.083       .  S
C1186      C1187   1.405       .  A
C1187      C1188   1.396       .  A
C1187      H1195   1.083       .  S
C1188      H1196   1.084       .  S
C1197      C1198   1.407       .  A
C1197      C1202   1.411       .  A
C1198      C1199   1.401       .  A
C1198      H1211   1.083       .  S
C1199      C1200   1.402       .  A
C1199      H1212   1.083       .  S
C1200      C1201   1.394       .  A
C1200      C1203   1.434       .  S
C1201      C1202   1.391       .  A
C1201      H1213   1.084       .  S
C1202      H1214   1.083       .  S
C1203      C1204   1.202       .  T
C1204      C1205   1.433       .  S
C1205      C1206   1.401       .  A
C1205      C1210   1.398       .  A
C1206      C1207   1.398       .  A
C1206      H1215   1.083       .  S
C1207      C1208   1.404       .  A
C1207      H1216   1.083       .  S
C1208      C1209   1.403       .  A
C1209      C1210   1.393       .  A
C1209      H1217   1.083       .  S
C1210      H1218   1.084       .  S
C1219      C1220   1.411       .  A
C1219      C1224   1.407       .  A
C1220      C1221   1.394       .  A
C1220      H1233   1.083       .  S
C1221      C1222   1.395       .  A
C1221      H1234   1.084       .  S
C1222      C1223   1.402       .  A
C1222      C1225   1.439       .  S
C1223      C1224   1.402       .  A
C1223      H1235   1.083       .  S
C1224      H1236   1.083       .  S
C1225      C1226   1.205       .  T
C1226      C1227   1.439       .  S
C1227      C1228   1.401       .  A
C1227      C1232   1.398       .  A
C1228      C1229   1.400       .  A
C1228      H1237   1.083       .  S
C1229      C1230   1.405       .  A
C1229      H1238   1.082       .  S
C1230      C1231   1.406       .  A
C1231      C1232   1.395       .  A
C1231      H1239   1.083       .  S
C1232      H1240   1.084       .  S
C1241      C1242   1.411       .  A
C1241      C1246   1.406       .  A
C1242      C1243   1.393       .  A
C1242      H1255   1.083       .  S
C1243      C1244   1.395       .  A
C1243      H1256   1.084       .  S
C1244      C1245   1.402       .  A
C1244      C1247   1.436       .  S
C1245      C1246   1.401       .  A
C1245      H1257   1.083       .  S
C1246      H1258   1.083       .  S
C1247      C1248   1.204       .  T
C1248      C1249   1.435       .  S
C1249      C1250   1.397       .  A
C1249      C1254   1.402       .  A
C1250      C1251   1.393       .  A
C1250      H1259   1.084       .  S
C1251      C1252   1.403       .  A
C1251      H1260   1.083       .  S
C1252      C1253   1.403       .  A
C1253      C1254   1.400       .  A
C1253      H1261   1.083       .  S
C1254      H1262   1.083       .  S
C1263      C1264   1.405       .  A
C1263      C1268   1.406   1_565  A
C1264      C1265   1.401       .  A
C1264      H1277   1.082       .  S
C1265      C1266   1.402       .  A
C1265      H1278   1.083       .  S
C1266      C1267   1.401   1_565  A
C1266      C1269   1.445       .  S
C1267      C1268   1.400       .  A
C1267      H1279   1.083       .  S
C1268      H1280   1.083       .  S
C1269      C1270   1.209       .  T
C1270      C1271   1.445       .  S
C1271      C1272   1.400       .  A
C1271      C1276   1.400       .  A
C1272      C1273   1.400       .  A
C1272      H1281   1.083       .  S
C1273      C1274   1.408       .  A
C1273      H1282   1.083       .  S
C1274      C1275   1.411       .  A
C1275      C1276   1.400       .  A
C1275      H1283   1.083       .  S
C1276      H1284   1.084       .  S
C1285      C1286   1.410       .  A
C1285      C1290   1.409       .  A
C1286      C1287   1.400   1_565  A
C1286      H1299   1.083       .  S
C1287      C1288   1.400   1_545  A
C1287      H1300   1.083       .  S
C1288      C1289   1.401       .  A
C1288      C1291   1.445       .  S
C1289      C1290   1.401       .  A
C1289      H1301   1.083       .  S
C1290      H1302   1.083       .  S
C1291      C1292   1.209       .  T
C1292      C1293   1.445       .  S
C1293      C1294   1.402       .  A
C1293      C1298   1.401   1_565  A
C1294      C1295   1.401       .  A
C1294      H1303   1.083       .  S
C1295      C1296   1.406       .  A
C1295      H1304   1.082       .  S
C1296      C1297   1.406   1_565  A
C1297      C1298   1.400       .  A
C1297      H1305   1.082       .  S
C1298      H1306   1.083       .  S
C1307      C1308   1.410       .  A
C1307      C1312   1.411       .  A
C1308      C1309   1.404       .  A
C1308      H1321   1.083   1_565  S
C1309      C1310   1.402       .  A
C1309      H1322   1.083   1_565  S
C1310      C1311   1.403       .  A
C1310      C1313   1.454       .  S
C1311      C1312   1.405       .  A
C1311      H1323   1.083       .  S
C1312      H1324   1.083       .  S
C1313      C1314   1.215       .  T
C1314      C1315   1.454       .  S
C1315      C1316   1.403       .  A
C1315      C1320   1.404   1_565  A
C1316      C1317   1.402       .  A
C1316      H1325   1.083       .  S
C1317      C1318   1.404       .  A
C1317      H1326   1.083       .  S
C1318      C1319   1.405   1_565  A
C1319      C1320   1.404       .  A
C1319      H1327   1.083       .  S
C1320      H1328   1.083       .  S
C1329      C1330   1.411       .  A
C1329      C1334   1.407       .  A
C1330      C1331   1.393       .  A
C1330      H1343   1.083       .  S
C1331      C1332   1.394       .  A
C1331      H1344   1.084       .  S
C1332      C1333   1.402       .  A
C1332      C1335   1.435       .  S
C1333      C1334   1.401       .  A
C1333      H1345   1.083       .  S
C1334      H1346   1.083       .  S
C1335      C1336   1.203   1_565  T
C1336      C1337   1.435       .  S
C1337      C1338   1.401   1_545  A
C1337      C1342   1.396       .  A
C1338      C1339   1.400       .  A
C1338      H1347   1.083       .  S
C1339      C1340   1.406   1_565  A
C1339      H1348   1.082       .  S
C1340      C1341   1.405       .  A
C1341      C1342   1.392       .  A
C1341      H1349   1.083       .  S
C1342      H1350   1.084       .  S
C1351      C1352   1.411       .  A
C1351      C1356   1.409       .  A
C1352      C1353   1.402       .  A
C1352      H1365   1.083       .  S
C1353      C1354   1.401       .  A
C1353      H1366   1.083       .  S
C1354      C1355   1.401       .  A
C1354      C1357   1.449       .  S
C1355      C1356   1.402       .  A
C1355      H1367   1.083       .  S
C1356      H1368   1.083       .  S
C1357      C1358   1.212   1_565  T
C1358      C1359   1.449       .  S
C1359      C1360   1.402       .  A
C1359      C1364   1.403   1_545  A
C1360      C1361   1.401       .  A
C1360      H1369   1.083       .  S
C1361      C1362   1.406       .  A
C1361      H1370   1.083       .  S
C1362      C1363   1.406   1_545  A
C1363      C1364   1.403       .  A
C1363      H1371   1.082       .  S
C1364      H1372   1.083       .  S
C1373      C1374   1.403       .  A
C1373      C1378   1.403       .  A
C1374      C1375   1.396       .  A
C1374      H1387   1.083       .  S
C1375      C1376   1.399       .  A
C1375      H1388   1.084       .  S
C1376      C1377   1.402       .  A
C1376      C1379   1.438       .  S
C1377      C1378   1.400       .  A
C1377      H1389   1.083       .  S
C1378      H1390   1.083       .  S
C1379      C1380   1.205       .  T
C1380      C1381   1.438       .  S
C1381      C1382   1.402       .  A
C1381      C1386   1.395       .  A
C1382      C1383   1.402       .  A
C1382      H1391   1.083       .  S
C1383      C1384   1.407       .  A
C1383      H1392   1.083       .  S
C1384      C1385   1.411       .  A
C1385      C1386   1.393       .  A
C1385      H1393   1.083       .  S
C1386      H1394   1.084       .  S
C1395      C1396   1.404       .  A
C1395      C1400   1.404       .  A
C1396      C1397   1.403       .  A
C1396      H1409   1.083       .  S
C1397      C1398   1.404       .  A
C1397      H1410   1.083       .  S
C1398      C1399   1.399       .  A
C1398      C1401   1.443       .  S
C1399      C1400   1.396       .  A
C1399      H1411   1.084       .  S
C1400      H1412   1.083       .  S
C1401      C1402   1.208       .  T
C1402      C1403   1.443       .  S
C1403      C1404   1.397       .  A
C1403      C1408   1.403       .  A
C1404      C1405   1.396       .  A
C1404      H1413   1.084       .  S
C1405      C1406   1.409       .  A
C1405      H1414   1.083       .  S
C1406      C1407   1.407       .  A
C1407      C1408   1.404       .  A
C1407      H1415   1.083       .  S
C1408      H1416   1.083       .  S
C1417      C1418   1.410       .  A
C1417      C1422   1.406       .  A
C1418      C1419   1.394       .  A
C1418      H1431   1.083       .  S
C1419      C1420   1.396       .  A
C1419      H1432   1.084       .  S
C1420      C1421   1.403       .  A
C1420      C1423   1.440       .  S
C1421      C1422   1.402       .  A
C1421      H1433   1.083       .  S
C1422      H1434   1.083       .  S
C1423      C1424   1.206       .  T
C1424      C1425   1.440       .  S
C1425      C1426   1.397       .  A
C1425      C1430   1.403       .  A
C1426      C1427   1.394       .  A
C1426      H1435   1.084       .  S
C1427      C1428   1.405       .  A
C1427      H1436   1.083       .  S
C1428      C1429   1.406       .  A
C1429      C1430   1.403       .  A
C1429      H1437   1.083       .  S
C1430      H1438   1.083       .  S
C1439      C1440   1.405       .  A
C1439      C1444   1.404       .  A
C1440      C1441   1.394       .  A
C1440      H1453   1.083       .  S
C1441      C1442   1.397       .  A
C1441      H1454   1.084       .  S
C1442      C1443   1.402       .  A
C1442      C1445   1.438       .  S
C1443      C1444   1.401       .  A
C1443      H1455   1.083       .  S
C1444      H1456   1.083       .  S
C1445      C1446   1.205       .  T
C1446      C1447   1.439       .  S
C1447      C1448   1.402       .  A
C1447      C1452   1.396       .  A
C1448      C1449   1.401       .  A
C1448      H1457   1.083       .  S
C1449      C1450   1.407       .  A
C1449      H1458   1.083       .  S
C1450      C1451   1.412       .  A
C1451      C1452   1.395       .  A
C1451      H1459   1.083       .  S
C1452      H1460   1.084       .  S
C1461      C1462   1.403       .  A
C1461      C1466   1.403   1_545  A
C1462      C1463   1.394       .  A
C1462      H1475   1.083       .  S
C1463      C1464   1.398   1_545  A
C1463      H1476   1.084       .  S
C1464      C1465   1.402       .  A
C1464      C1467   1.437       .  S
C1465      C1466   1.400       .  A
C1465      H1477   1.083       .  S
C1466      H1478   1.083       .  S
C1467      C1468   1.205       .  T
C1468      C1469   1.438       .  S
C1469      C1470   1.396       .  A
C1469      C1474   1.402       .  A
C1470      C1471   1.394       .  A
C1470      H1479   1.084       .  S
C1471      C1472   1.411       .  A
C1471      H1480   1.083       .  S
C1472      C1473   1.406       .  A
C1473      C1474   1.401       .  A
C1473      H1481   1.083   1_565  S
C1474      H1482   1.083   1_565  S
C1483      C1484   1.404   1_545  A
C1483      C1488   1.404       .  A
C1484      C1485   1.401       .  A
C1484      H1497   1.083       .  S
C1485      C1486   1.402       .  A
C1485      H1498   1.083       .  S
C1486      C1487   1.398   1_565  A
C1486      C1489   1.439       .  S
C1487      C1488   1.394       .  A
C1487      H1499   1.084       .  S
C1488      H1500   1.083       .  S
C1489      C1490   1.206       .  T
C1490      C1491   1.439       .  S
C1491      C1492   1.398       .  A
C1491      C1496   1.402   1_565  A
C1492      C1493   1.397       .  A
C1492      H1501   1.084       .  S
C1493      C1494   1.409       .  A
C1493      H1502   1.083       .  S
C1494      C1495   1.405   1_565  A
C1495      C1496   1.400       .  A
C1495      H1503   1.083       .  S
C1496      H1504   1.083       .  S
C1505      C1506   1.411       .  A
C1505      C1510   1.407       .  A
C1506      C1507   1.394       .  A
C1506      H1519   1.083       .  S
C1507      C1508   1.395       .  A
C1507      H1520   1.084       .  S
C1508      C1509   1.403       .  A
C1508      C1511   1.439       .  S
C1509      C1510   1.402       .  A
C1509      H1521   1.083       .  S
C1510      H1522   1.083       .  S
C1511      C1512   1.205       .  T
C1512      C1513   1.438       .  S
C1513      C1514   1.402       .  A
C1513      C1518   1.398   1_565  A
C1514      C1515   1.401       .  A
C1514      H1523   1.083       .  S
C1515      C1516   1.404   1_565  A
C1515      H1524   1.083       .  S
C1516      C1517   1.404       .  A
C1517      C1518   1.395       .  A
C1517      H1525   1.083       .  S
C1518      H1526   1.084       .  S
C1527      C1528   1.403   1_545  A
C1527      C1532   1.403       .  A
C1528      C1529   1.391       .  A
C1528      H1541   1.084       .  S
C1529      C1530   1.396   1_565  A
C1529      H1542   1.084       .  S
C1530      C1531   1.403       .  A
C1530      C1533   1.434       .  S
C1531      C1532   1.402       .  A
C1531      H1543   1.083       .  S
C1532      H1544   1.083       .  S
C1533      C1534   1.203   1_545  T
C1534      C1535   1.435       .  S
C1535      C1536   1.394       .  A
C1535      C1540   1.402       .  A
C1536      C1537   1.392       .  A
C1536      H1545   1.084       .  S
C1537      C1538   1.412       .  A
C1537      H1546   1.083       .  S
C1538      C1539   1.406       .  A
C1539      C1540   1.401       .  A
C1539      H1547   1.083       .  S
C1540      H1548   1.083       .  S
C1549      C1550   1.409       .  A
C1549      C1554   1.409       .  A
C1550      C1551   1.399       .  A
C1550      H1563   1.083       .  S
C1551      C1552   1.400       .  A
C1551      H1564   1.084       .  S
C1552      C1553   1.399       .  A
C1552      C1555   1.441       .  S
C1553      C1554   1.399       .  A
C1553      H1565   1.083       .  S
C1554      H1566   1.083       .  S
C1555      C1556   1.207       .  T
C1556      C1557   1.442       .  S
C1557      C1558   1.400       .  A
C1557      C1562   1.400       .  A
C1558      C1559   1.400       .  A
C1558      H1567   1.083       .  S
C1559      C1560   1.406       .  A
C1559      H1568   1.082       .  S
C1560      C1561   1.406       .  A
C1561      C1562   1.399       .  A
C1561      H1569   1.082       .  S
C1562      H1570   1.083       .  S
C1571      C1572   1.408       .  A
C1571      C1576   1.410       .  A
C1572      C1573   1.400       .  A
C1572      H1585   1.083       .  S
C1573      C1574   1.401       .  A
C1573      H1586   1.083       .  S
C1574      C1575   1.400       .  A
C1574      C1577   1.445       .  S
C1575      C1576   1.400       .  A
C1575      H1587   1.083       .  S
C1576      H1588   1.083       .  S
C1577      C1578   1.209       .  T
C1578      C1579   1.445       .  S
C1579      C1580   1.402       .  A
C1579      C1584   1.401       .  A
C1580      C1581   1.401       .  A
C1580      H1589   1.083       .  S
C1581      C1582   1.404       .  A
C1581      H1590   1.083       .  S
C1582      C1583   1.403       .  A
C1583      C1584   1.400       .  A
C1583      H1591   1.083       .  S
C1584      H1592   1.083       .  S
C1593      C1594   1.410       .  A
C1593      C1598   1.409       .  A
C1594      C1595   1.401       .  A
C1594      H1607   1.083       .  S
C1595      C1596   1.400       .  A
C1595      H1608   1.083       .  S
C1596      C1597   1.400       .  A
C1596      C1599   1.446       .  S
C1597      C1598   1.401       .  A
C1597      H1609   1.083       .  S
C1598      H1610   1.083       .  S
C1599      C1600   1.210       .  T
C1600      C1601   1.446       .  S
C1601      C1602   1.401       .  A
C1601      C1606   1.401       .  A
C1602      C1603   1.401       .  A
C1602      H1611   1.083       .  S
C1603      C1604   1.406       .  A
C1603      H1612   1.083       .  S
C1604      C1605   1.405       .  A
C1605      C1606   1.401       .  A
C1605      H1613   1.082       .  S
C1606      H1614   1.083       .  S
C1615      C1616   1.408       .  A
C1615      C1620   1.410       .  A
C1616      C1617   1.399       .  A
C1616      H1629   1.083       .  S
C1617      C1618   1.399       .  A
C1617      H1630   1.083       .  S
C1618      C1619   1.400       .  A
C1618      C1621   1.443       .  S
C1619      C1620   1.400       .  A
C1619      H1631   1.084       .  S
C1620      H1632   1.083       .  S
C1621      C1622   1.208       .  T
C1622      C1623   1.443       .  S
C1623      C1624   1.400       .  A
C1623      C1628   1.402       .  A
C1624      C1625   1.398       .  A
C1624      H1633   1.083       .  S
C1625      C1626   1.405       .  A
C1625      H1634   1.082       .  S
C1626      C1627   1.406       .  A
C1627      C1628   1.401       .  A
C1627      H1635   1.082       .  S
C1628      H1636   1.083       .  S
C1637      C1638   1.406       .  A
C1637      C1642   1.404       .  A
C1638      C1639   1.394       .  A
C1638      H1651   1.083       .  S
C1639      C1640   1.397       .  A
C1639      H1652   1.084       .  S
C1640      C1641   1.401       .  A
C1640      C1643   1.436       .  S
C1641      C1642   1.399       .  A
C1641      H1653   1.083   1_655  S
C1642      H1654   1.082   1_655  S
C1643      C1644   1.204       .  T
C1644      C1645   1.437       .  S
C1645      C1646   1.395       .  A
C1645      C1650   1.401       .  A
C1646      C1647   1.394       .  A
C1646      H1655   1.084       .  S
C1647      C1648   1.411       .  A
C1647      H1656   1.083       .  S
C1648      C1649   1.407       .  A
C1649      C1650   1.401       .  A
C1649      H1657   1.083       .  S
C1650      H1658   1.083       .  S
C1659      C1660   1.404       .  A
C1659      C1664   1.403   1_655  A
C1660      C1661   1.401       .  A
C1660      H1673   1.083       .  S
C1661      C1662   1.402       .  A
C1661      H1674   1.083       .  S
C1662      C1663   1.396   1_655  A
C1662      C1665   1.434       .  S
C1663      C1664   1.392       .  A
C1663      H1675   1.084       .  S
C1664      H1676   1.083       .  S
C1665      C1666   1.202       .  T
C1666      C1667   1.434       .  S
C1667      C1668   1.394       .  A
C1667      C1672   1.402   1_655  A
C1668      C1669   1.392       .  A
C1668      H1677   1.084       .  S
C1669      C1670   1.411   1_655  A
C1669      H1678   1.083       .  S
C1670      C1671   1.405       .  A
C1671      C1672   1.400       .  A
C1671      H1679   1.083       .  S
C1672      H1680   1.083       .  S
C1681      C1682   1.404   1_455  A
C1681      C1686   1.406       .  A
C1682      C1683   1.399       .  A
C1682      H1695   1.082       .  S
C1683      C1684   1.400   1_655  A
C1683      H1696   1.083       .  S
C1684      C1685   1.397       .  A
C1684      C1687   1.434       .  S
C1685      C1686   1.393       .  A
C1685      H1697   1.084       .  S
C1686      H1698   1.083       .  S
C1687      C1688   1.203       .  T
C1688      C1689   1.435       .  S
C1689      C1690   1.401   1_455  A
C1689      C1694   1.395       .  A
C1690      C1691   1.400       .  A
C1690      H1699   1.083       .  S
C1691      C1692   1.407   1_655  A
C1691      H1700   1.083       .  S
C1692      C1693   1.409       .  A
C1693      C1694   1.393       .  A
C1693      H1701   1.083       .  S
C1694      H1702   1.084       .  S
C1703      C1704   1.406       .  A
C1703      C1708   1.410       .  A
C1704      C1705   1.398       .  A
C1704      H1717   1.083       .  S
C1705      C1706   1.400       .  A
C1705      H1718   1.083       .  S
C1706      C1707   1.395       .  A
C1706      C1709   1.433       .  S
C1707      C1708   1.393       .  A
C1707      H1719   1.084       .  S
C1708      H1720   1.083       .  S
C1709      C1710   1.202       .  T
C1710      C1711   1.432       .  S
C1711      C1712   1.400   1_655  A
C1711      C1716   1.399       .  A
C1712      C1713   1.396       .  A
C1712      H1721   1.083       .  S
C1713      C1714   1.401   1_455  A
C1713      H1722   1.083       .  S
C1714      C1715   1.402       .  A
C1715      C1716   1.395       .  A
C1715      H1723   1.083       .  S
C1716      H1724   1.084       .  S
C1725      C1726   1.407   1_455  A
C1725      C1730   1.410       .  A
C1726      C1727   1.401       .  A
C1726      H1739   1.083       .  S
C1727      C1728   1.402   1_655  A
C1727      H1740   1.083       .  S
C1728      C1729   1.395       .  A
C1728      C1731   1.437       .  S
C1729      C1730   1.393       .  A
C1729      H1741   1.084       .  S
C1730      H1742   1.083       .  S
C1731      C1732   1.204   1_455  T
C1732      C1733   1.437       .  S
C1733      C1734   1.402   1_655  A
C1733      C1738   1.398       .  A
C1734      C1735   1.401       .  A
C1734      H1743   1.083       .  S
C1735      C1736   1.403   1_455  A
C1735      H1744   1.083       .  S
C1736      C1737   1.404       .  A
C1737      C1738   1.394       .  A
C1737      H1745   1.083       .  S
C1738      H1746   1.084       .  S
C1747      C1748   1.404   1_455  A
C1747      C1752   1.404       .  A
C1748      C1749   1.400       .  A
C1748      H1761   1.083       .  S
C1749      C1750   1.402   1_655  A
C1749      H1762   1.083       .  S
C1750      C1751   1.396       .  A
C1750      C1753   1.435       .  S
C1751      C1752   1.392       .  A
C1751      H1763   1.084       .  S
C1752      H1764   1.083       .  S
C1753      C1754   1.203       .  T
C1754      C1755   1.435       .  S
C1755      C1756   1.402       .  A
C1755      C1760   1.394   1_455  A
C1756      C1757   1.401       .  A
C1756      H1765   1.083       .  S
C1757      C1758   1.407       .  A
C1757      H1766   1.083       .  S
C1758      C1759   1.410   1_455  A
C1759      C1760   1.391       .  A
C1759      H1767   1.083       .  S
C1760      H1768   1.084       .  S
C1769      C1770   1.406       .  A
C1769      C1774   1.410       .  A
C1770      C1771   1.400       .  A
C1770      H1783   1.083       .  S
C1771      C1772   1.401       .  A
C1771      H1784   1.083       .  S
C1772      C1773   1.396       .  A
C1772      C1775   1.437       .  S
C1773      C1774   1.395       .  A
C1773      H1785   1.084       .  S
C1774      H1786   1.083       .  S
C1775      C1776   1.205       .  T
C1776      C1777   1.438       .  S
C1777      C1778   1.401       .  A
C1777      C1782   1.400       .  A
C1778      C1779   1.399       .  A
C1778      H1787   1.083       .  S
C1779      C1780   1.402       .  A
C1779      H1788   1.083       .  S
C1780      C1781   1.404       .  A
C1781      C1782   1.397       .  A
C1781      H1789   1.083       .  S
C1782      H1790   1.084       .  S
C1791      C1792   1.404       .  A
C1791      C1796   1.403       .  A
C1792      C1793   1.395       .  A
C1792      H1805   1.083       .  S
C1793      C1794   1.398       .  A
C1793      H1806   1.084       .  S
C1794      C1795   1.403       .  A
C1794      C1797   1.439       .  S
C1795      C1796   1.401       .  A
C1795      H1807   1.083       .  S
C1796      H1808   1.083       .  S
C1797      C1798   1.206       .  T
C1798      C1799   1.439       .  S
C1799      C1800   1.402       .  A
C1799      C1804   1.396       .  A
C1800      C1801   1.401       .  A
C1800      H1809   1.083       .  S
C1801      C1802   1.407       .  A
C1801      H1810   1.083       .  S
C1802      C1803   1.411       .  A
C1803      C1804   1.395       .  A
C1803      H1811   1.083       .  S
C1804      H1812   1.084       .  S
C1813      C1814   1.409       .  A
C1813      C1818   1.405       .  A
C1814      C1815   1.392       .  A
C1814      H1827   1.083       .  S
C1815      C1816   1.395       .  A
C1815      H1828   1.084       .  S
C1816      C1817   1.402       .  A
C1816      C1819   1.434       .  S
C1817      C1818   1.400       .  A
C1817      H1829   1.083       .  S
C1818      H1830   1.083       .  S
C1819      C1820   1.202       .  T
C1820      C1821   1.434       .  S
C1821      C1822   1.397       .  A
C1821      C1826   1.401       .  A
C1822      C1823   1.393       .  A
C1822      H1831   1.084       .  S
C1823      C1824   1.404       .  A
C1823      H1832   1.083       .  S
C1824      C1825   1.405       .  A
C1825      C1826   1.399       .  A
C1825      H1833   1.083       .  S
C1826      H1834   1.083       .  S
C1835      C1836   1.411       .  A
C1835      C1840   1.406       .  A
C1836      C1837   1.394       .  A
C1836      H1849   1.083       .  S
C1837      C1838   1.395       .  A
C1837      H1850   1.084       .  S
C1838      C1839   1.402       .  A
C1838      C1841   1.438       .  S
C1839      C1840   1.401       .  A
C1839      H1851   1.083       .  S
C1840      H1852   1.083       .  S
C1841      C1842   1.205       .  T
C1842      C1843   1.437       .  S
C1843      C1844   1.398       .  A
C1843      C1848   1.402       .  A
C1844      C1845   1.395       .  A
C1844      H1853   1.084       .  S
C1845      C1846   1.405       .  A
C1845      H1854   1.083       .  S
C1846      C1847   1.405       .  A
C1847      C1848   1.401       .  A
C1847      H1855   1.083       .  S
C1848      H1856   1.083       .  S
C1857      C1858   1.405       .  A
C1857      C1862   1.409       .  A
C1858      C1859   1.399       .  A
C1858      H1871   1.083       .  S
C1859      C1860   1.401       .  A
C1859      H1872   1.083       .  S
C1860      C1861   1.397       .  A
C1860      C1863   1.437       .  S
C1861      C1862   1.395       .  A
C1861      H1873   1.084       .  S
C1862      H1874   1.083       .  S
C1863      C1864   1.204       .  T
C1864      C1865   1.437       .  S
C1865      C1866   1.401       .  A
C1865      C1870   1.397       .  A
C1866      C1867   1.400       .  A
C1866      H1875   1.083       .  S
C1867      C1868   1.405       .  A
C1867      H1876   1.082       .  S
C1868      C1869   1.407       .  A
C1869      C1870   1.394       .  A
C1869      H1877   1.083       .  S
C1870      H1878   1.084       .  S
C1879      C1880   1.403       .  A
C1879      C1884   1.404       .  A
C1880      C1881   1.400       .  A
C1880      H1893   1.083       .  S
C1881      C1882   1.402       .  A
C1881      H1894   1.083       .  S
C1882      C1883   1.396       .  A
C1882      C1885   1.434       .  S
C1883      C1884   1.392       .  A
C1883      H1895   1.084       .  S
C1884      H1896   1.083       .  S
C1885      C1886   1.202       .  T
C1886      C1887   1.433       .  S
C1887      C1888   1.402       .  A
C1887      C1892   1.395       .  A
C1888      C1889   1.400       .  A
C1888      H1897   1.083       .  S
C1889      C1890   1.406       .  A
C1889      H1898   1.083       .  S
C1890      C1891   1.409       .  A
C1891      C1892   1.392       .  A
C1891      H1899   1.083       .  S
C1892      H1900   1.084       .  S
C1901      C1902   1.412       .  A
C1901      C1906   1.406       .  A
C1902      C1903   1.395       .  A
C1902      H1915   1.083       .  S
C1903      C1904   1.396       .  A
C1903      H1916   1.084       .  S
C1904      C1905   1.403       .  A
C1904      C1907   1.441       .  S
C1905      C1906   1.403       .  A
C1905      H1917   1.083       .  S
C1906      H1918   1.083       .  S
C1907      C1908   1.206       .  T
C1908      C1909   1.440       .  S
C1909      C1910   1.399       .  A
C1909      C1914   1.403       .  A
C1910      C1911   1.395       .  A
C1910      H1919   1.084       .  S
C1911      C1912   1.404       .  A
C1911      H1920   1.083       .  S
C1912      C1913   1.403       .  A
C1913      C1914   1.401       .  A
C1913      H1921   1.083       .  S
C1914      H1922   1.083       .  S
C1923      C1924   1.411       .  A
C1923      C1928   1.407       .  A
C1924      C1925   1.393       .  A
C1924      H1937   1.083       .  S
C1925      C1926   1.395       .  A
C1925      H1938   1.084       .  S
C1926      C1927   1.403       .  A
C1926      C1929   1.439       .  S
C1927      C1928   1.403       .  A
C1927      H1939   1.083       .  S
C1928      H1940   1.083       .  S
C1929      C1930   1.206       .  T
C1930      C1931   1.439       .  S
C1931      C1932   1.397       .  A
C1931      C1936   1.403       .  A
C1932      C1933   1.393       .  A
C1932      H1941   1.084       .  S
C1933      C1934   1.405       .  A
C1933      H1942   1.083       .  S
C1934      C1935   1.406       .  A
C1935      C1936   1.403       .  A
C1935      H1943   1.083       .  S
C1936      H1944   1.083       .  S
C1945      C1946   1.410   1_655  A
C1945      C1950   1.409       .  A
C1946      C1947   1.402       .  A
C1946      H1959   1.083       .  S
C1947      C1948   1.401   1_455  A
C1947      H1960   1.083       .  S
C1948      C1949   1.401       .  A
C1948      C1951   1.448       .  S
C1949      C1950   1.401       .  A
C1949      H1961   1.083       .  S
C1950      H1962   1.083       .  S
C1951      C1952   1.211       .  T
C1952      C1953   1.448       .  S
C1953      C1954   1.402       .  A
C1953      C1958   1.401   1_655  A
C1954      C1955   1.402       .  A
C1954      H1963   1.083       .  S
C1955      C1956   1.406       .  A
C1955      H1964   1.082       .  S
C1956      C1957   1.406   1_655  A
C1957      C1958   1.401       .  A
C1957      H1965   1.082       .  S
C1958      H1966   1.083       .  S
C1967      C1968   1.411   1_455  A
C1967      C1972   1.410       .  A
C1968      C1969   1.403       .  A
C1968      H1981   1.083       .  S
C1969      C1970   1.401       .  A
C1969      H1982   1.083       .  S
C1970      C1971   1.402   1_655  A
C1970      C1973   1.452       .  S
C1971      C1972   1.404       .  A
C1971      H1983   1.083       .  S
C1972      H1984   1.083       .  S
C1973      C1974   1.213       .  T
C1974      C1975   1.452       .  S
C1975      C1976   1.403   1_655  A
C1975      C1980   1.403       .  A
C1976      C1977   1.403       .  A
C1976      H1985   1.083       .  S
C1977      C1978   1.405   1_455  A
C1977      H1986   1.082       .  S
C1978      C1979   1.407       .  A
C1979      C1980   1.403       .  A
C1979      H1987   1.082       .  S
C1980      H1988   1.083       .  S
C1989      C1990   1.411       .  A
C1989      C1994   1.409       .  A
C1990      C1991   1.402       .  A
C1990      H2003   1.083       .  S
C1991      C1992   1.400       .  A
C1991      H2004   1.084       .  S
C1992      C1993   1.401       .  A
C1992      C1995   1.447       .  S
C1993      C1994   1.401       .  A
C1993      H2005   1.083       .  S
C1994      H2006   1.083       .  S
C1995      C1996   1.210       .  T
C1996      C1997   1.447       .  S
C1997      C1998   1.401   1_455  A
C1997      C2002   1.402       .  A
C1998      C1999   1.400       .  A
C1998      H2007   1.083       .  S
C1999      C2000   1.406   1_655  A
C1999      H2008   1.082       .  S
C2000      C2001   1.407       .  A
C2001      C2002   1.402       .  A
C2001      H2009   1.082       .  S
C2002      H2010   1.083       .  S
C2011      C2012   1.405       .  A
C2011      C2016   1.404   1_455  A
C2012      C2013   1.394       .  A
C2012      H2025   1.083       .  S
C2013      C2014   1.397       .  A
C2013      H2026   1.084       .  S
C2014      C2015   1.402   1_455  A
C2014      C2017   1.437       .  S
C2015      C2016   1.401       .  A
C2015      H2027   1.083       .  S
C2016      H2028   1.083       .  S
C2017      C2018   1.204       .  T
C2018      C2019   1.437       .  S
C2019      C2020   1.395       .  A
C2019      C2024   1.402       .  A
C2020      C2021   1.393       .  A
C2020      H2029   1.084       .  S
C2021      C2022   1.411       .  A
C2021      H2030   1.083       .  S
C2022      C2023   1.407       .  A
C2023      C2024   1.401       .  A
C2023      H2031   1.083       .  S
C2024      H2032   1.083       .  S
C2033      C2034   1.406   1_655  A
C2033      C2038   1.410       .  A
C2034      C2035   1.401       .  A
C2034      H2047   1.083       .  S
C2035      C2036   1.402   1_455  A
C2035      H2048   1.083       .  S
C2036      C2037   1.396       .  A
C2036      C2039   1.438       .  S
C2037      C2038   1.394       .  A
C2037      H2049   1.084       .  S
C2038      H2050   1.083       .  S
C2039      C2040   1.205       .  T
C2040      C2041   1.438       .  S
C2041      C2042   1.399       .  A
C2041      C2046   1.402   1_655  A
C2042      C2043   1.396       .  A
C2042      H2051   1.084       .  S
C2043      C2044   1.404       .  A
C2043      H2052   1.083       .  S
C2044      C2045   1.402   1_655  A
C2045      C2046   1.400       .  A
C2045      H2053   1.083       .  S
C2046      H2054   1.083       .  S
C2055      C2056   1.406       .  A
C2055      C2060   1.406   1_655  A
C2056      C2057   1.403       .  A
C2056      H2069   1.082       .  S
C2057      C2058   1.402       .  A
C2057      H2070   1.083       .  S
C2058      C2059   1.402   1_655  A
C2058      C2061   1.450       .  S
C2059      C2060   1.401       .  A
C2059      H2071   1.083       .  S
C2060      H2072   1.082       .  S
C2061      C2062   1.212       .  T
C2062      C2063   1.450       .  S
C2063      C2064   1.401       .  A
C2063      C2068   1.401   1_655  A
C2064      C2065   1.402       .  A
C2064      H2073   1.083       .  S
C2065      C2066   1.409       .  A
C2065      H2074   1.083       .  S
C2066      C2067   1.410   1_655  A
C2067      C2068   1.403       .  A
C2067      H2075   1.083       .  S
C2068      H2076   1.083       .  S
