geometry optimzed in LAMMPS
_audit_creation_date              2020-11-30 
_audit_creation_method            'lammps2cif' 
_symmetry_space_group_name_H-M    'P1' 
_symmetry_Int_Tables_number       1 
_symmetry_cell_setting            triclinic 
loop_ 
_symmetry_equiv_pos_as_xyz 
  x,y,z 
_cell_length_a                    53.15187773 
_cell_length_b                    53.034303743548314 
_cell_length_c                    42.6520006222205 
_cell_angle_alpha                 90.01705552986415 
_cell_angle_beta                  89.90776827791095 
_cell_angle_gamma                 90.28210377644018 
loop_ 
_atom_site_label 
_atom_site_type_symbol 
_atom_site_fract_x 
_atom_site_fract_y 
_atom_site_fract_z 
_atom_site_charge 
C1          C  0.90498968  0.99915924  0.39507501     0.79700
N2          N  0.89199728  0.02118946  0.39876409    -0.78600
C3          C  0.86659172  0.02069919  0.40317791     0.82200
N4          N  0.85455638  0.99817961  0.40383792    -0.78500
C5          C  0.86705930  0.97623312  0.40068171     0.82300
N6          N  0.89237828  0.97671814  0.39655960    -0.80300
In7        In  0.26529004  0.19841222  0.01107677     1.36900
C8          C  0.23806398  0.16469719  0.47989081     0.77100
O9          O  0.23578926  0.19147445  0.04769866    -0.61400
O10         O  0.25296464  0.22757575  0.04657773    -0.52300
C11         C  0.30793519  0.18464620  0.03877146     0.69700
O12         O  0.29297123  0.16900421  0.02636566    -0.47100
C13         C  0.27897236  0.22708261  0.46284159     0.74400
O14         O  0.25735346  0.15884765  0.49548905    -0.59000
O15         O  0.25845118  0.23020507  0.47708930    -0.49100
O16         O  0.23304414  0.18790309  0.47985356    -0.55400
C17         C  0.23716161  0.21314706  0.05946761     0.84600
O18         O  0.30066300  0.20724810  0.03771178    -0.57300
O19         O  0.29257892  0.20981529  0.47361140    -0.60600
C20         C  0.52371255  0.86921215  0.13529131     0.79700
N21         N  0.50113749  0.85818629  0.12875770    -0.78600
C22         C  0.47924165  0.87002595  0.13625626     0.82200
N23         N  0.48020966  0.89318770  0.14984454    -0.78500
C24         C  0.50258061  0.90445068  0.15624349     0.82300
N25         N  0.52414738  0.89236715  0.14877978    -0.80300
C26         C  0.47583197  0.12440010  0.11712869     0.79700
N27         N  0.47596047  0.10162272  0.13172749    -0.78600
C28         C  0.49785119  0.08939148  0.13725805     0.82200
N29         N  0.51979073  0.09990794  0.12759565    -0.78500
C30         C  0.52009898  0.12257166  0.11286327     0.82300
N31         N  0.49804590  0.13481546  0.10761390    -0.80300
In32       In  0.27597318  0.80347971  0.00133433     1.36900
C33         C  0.24577841  0.83785504  0.47554576     0.77100
O34         O  0.30310184  0.78956944  0.46502260    -0.61400
O35         O  0.26674452  0.77318051  0.46527376    -0.52300
C36         C  0.31793100  0.81712620  0.03077835     0.69700
O37         O  0.30370441  0.83292863  0.01755228    -0.47100
C38         C  0.25184083  0.78640304  0.05154043     0.74400
O39         O  0.26932290  0.83825678  0.47189364    -0.59000
O40         O  0.25647968  0.77236352  0.02828767    -0.49100
O41         O  0.23791023  0.82011203  0.49248758    -0.55400
C42         C  0.28807564  0.77427301  0.45242971     0.84600
O43         O  0.31080638  0.79445735  0.02828506    -0.57300
O44         O  0.26024853  0.80856510  0.04937674    -0.60600
In45       In  0.72874879  0.80173577  0.50734184     1.36900
C46         C  0.68537300  0.81403184  0.03408546     0.77100
O47         O  0.70389335  0.79009088  0.46752182    -0.61400
O48         O  0.73693569  0.76878853  0.47538695    -0.52300
C49         C  0.75711473  0.83568830  0.47815733     0.69700
O50         O  0.73629764  0.84110780  0.49070590    -0.47100
C51         C  0.75579391  0.78917471  0.05728502     0.74400
O52         O  0.69892931  0.82977824  0.01956361    -0.59000
O53         O  0.74205598  0.77344173  0.04313659    -0.49100
O54         O  0.69409956  0.79195411  0.03489176    -0.55400
C55         C  0.71761667  0.77212641  0.45887737     0.84600
O56         O  0.76310958  0.81277397  0.48013539    -0.57300
O57         O  0.75521654  0.81118370  0.04638819    -0.60600
In58       In  0.72917449  0.19938028  0.50185533     1.36900
C59         C  0.68624995  0.18577822  0.02916295     0.77100
O60         O  0.75465444  0.19154497  0.04183342    -0.61400
O61         O  0.74115987  0.22896735  0.03735903    -0.52300
C62         C  0.75819824  0.16625363  0.47233419     0.69700
O63         O  0.73548153  0.16176834  0.47912187    -0.47100
C64         C  0.71728840  0.22845860  0.45363540     0.74400
O65         O  0.70424840  0.17072082  0.02510095    -0.59000
O66         O  0.73519900  0.23400749  0.47182972    -0.49100
O67         O  0.69031941  0.20786802  0.01948466    -0.55400
C68         C  0.75462471  0.21364339  0.05241355     0.84600
O69         O  0.76573543  0.18805990  0.47960012    -0.57300
O70         O  0.70597475  0.20817953  0.45995340    -0.60600
C71         C  0.09532819  0.99894045  0.39387564     0.79700
N72         N  0.10719540  0.02175227  0.39547226    -0.78600
C73         C  0.13246344  0.02306533  0.39961252     0.82200
N74         N  0.14572972  0.00153215  0.40256050    -0.78500
C75         C  0.13437631  0.97864474  0.40163444     0.82300
N76         N  0.10899601  0.97736691  0.39738690    -0.80300
C77         C  0.99942866  0.40514116  0.00928415     0.79700
N78         N  0.02174649  0.39273727  0.01159658    -0.78600
C79         C  0.02222556  0.36741064  0.01588033     0.82200
N80         N  0.00025361  0.35462123  0.01857298    -0.78500
C81         C  0.97776971  0.36647437  0.01704994     0.82300
N82         N  0.97738435  0.39192007  0.01231196    -0.80300
C83         C  0.87358924  0.97948095  0.24799939     0.79700
N84         N  0.89630718  0.97980296  0.26264686    -0.78600
C85         C  0.90840722  0.00187810  0.26854839     0.82200
N86         N  0.89767159  0.02379254  0.25931158    -0.78500
C87         C  0.87489370  0.02392108  0.24497907     0.82300
N88         N  0.86291393  0.00168217  0.23922859    -0.80300
C89         C  0.12458149  0.01917023  0.24479342     0.79700
N90         N  0.13407117  0.99706332  0.23363810    -0.78600
C91         C  0.12271427  0.97467319  0.24074871     0.82200
N92         N  0.10154007  0.97466878  0.25858423    -0.78500
C93         C  0.09167697  0.99648667  0.26961886     0.82300
N94         N  0.10331252  0.01863178  0.26258152    -0.80300
In95       In  0.79999835  0.23151272  0.12737731     1.36900
C96         C  0.81355783  0.18878468  0.15533524     0.77100
O97         O  0.80818407  0.25510121  0.16925868    -0.61400
O98         O  0.77005036  0.24463234  0.16162132    -0.52300
C99         C  0.83343396  0.26008288  0.09649756     0.69700
O100        O  0.83548659  0.23643106  0.09860196    -0.47100
C101        C  0.76998016  0.22048160  0.07952629     0.74400
O102        O  0.82911758  0.20595738  0.14830215    -0.59000
O103        O  0.76745777  0.24060285  0.09497590    -0.49100
O104        O  0.79107241  0.19357493  0.14821710    -0.55400
C105        C  0.78572103  0.25646564  0.17838519     0.84600
O106        O  0.81420011  0.26887977  0.10976386    -0.57300
O107        O  0.78724224  0.20625613  0.08892014    -0.60600
In108      In  0.19306088  0.23295339  0.13499584     1.36900
C109        C  0.16016211  0.26178118  0.10468196     0.77100
O110        O  0.18617137  0.26025167  0.17436495    -0.61400
O111        O  0.22268115  0.24485174  0.17016732    -0.52300
C112        C  0.18042375  0.18876634  0.16094040     0.69700
O113        O  0.16432436  0.20447773  0.15154472    -0.47100
C114        C  0.22154757  0.22061649  0.08612869     0.74400
O115        O  0.15383160  0.24206178  0.11937656    -0.59000
O116        O  0.22634641  0.23951505  0.10307779    -0.49100
O117        O  0.18339844  0.26664371  0.10541303    -0.55400
C118        C  0.20820568  0.25936411  0.18493512     0.84600
O119        O  0.20292040  0.19588615  0.15740966    -0.57300
O120        O  0.20229073  0.20825279  0.09406858    -0.60600
In121      In  0.20184906  0.76805027  0.12202470     1.36900
C122        C  0.16682687  0.74043122  0.09286762     0.77100
O123        O  0.23178170  0.79294100  0.10089727    -0.61400
O124        O  0.22464744  0.75789807  0.07900566    -0.52300
C125        C  0.18187141  0.81008070  0.14656429     0.69700
O126        O  0.18203927  0.80559379  0.11751832    -0.47100
C127        C  0.21856680  0.74218258  0.17112131     0.74400
O128        O  0.16453230  0.76387150  0.09717858    -0.59000
O129        O  0.23266601  0.75724057  0.15620279    -0.49100
O130        O  0.18676469  0.73128588  0.10385616    -0.55400
C131        C  0.23620775  0.77858073  0.07811458     0.84600
O132        O  0.19113228  0.79272137  0.16296605    -0.57300
O133        O  0.19645673  0.74041778  0.16077042    -0.60600
In134      In  0.80264341  0.77068717  0.13056929     1.36900
C135        C  0.83666698  0.74353088  0.09993196     0.77100
O136        O  0.81170899  0.74274653  0.16805213    -0.61400
O137        O  0.77499708  0.75822492  0.16765464    -0.52300
C138        C  0.81556039  0.81326665  0.15902845     0.69700
O139        O  0.83141077  0.79888626  0.14624829    -0.47100
C140        C  0.77192120  0.78252104  0.08371025     0.74400
O141        O  0.84146420  0.76518819  0.11079473    -0.59000
O142        O  0.76920872  0.76260600  0.09946623    -0.49100
O143        O  0.81424812  0.73627146  0.10391265    -0.55400
C144        C  0.79034655  0.74354605  0.18063383     0.84600
O145        O  0.79307961  0.80567666  0.15744245    -0.57300
O146        O  0.79002985  0.79630767  0.09205174    -0.60600
C147        C  0.99919097  0.59596382  0.01444693     0.79700
N148        N  0.02129408  0.60925628  0.01602943    -0.78600
C149        C  0.02098841  0.63468546  0.02068551     0.82200
N150        N  0.99859852  0.64649569  0.02328688    -0.78500
C151        C  0.97659302  0.63374874  0.02195084     0.82300
N152        N  0.97689137  0.60834864  0.01794870    -0.80300
C153        C  0.49859566  0.09774952  0.25805132     0.79700
N154        N  0.47559483  0.10861259  0.26217142    -0.78600
C155        C  0.47381221  0.13378536  0.26763708     0.82200
N156        N  0.49505758  0.14783992  0.26953182    -0.78500
C157        C  0.51809927  0.13744842  0.26617781     0.82300
N158        N  0.51982118  0.11226810  0.26042638    -0.80300
In159      In  0.30090577  0.26735017  0.38497782     1.36900
C160        C  0.33387051  0.23732521  0.35676974     0.77100
O161        O  0.30905166  0.24329249  0.42672716    -0.61400
O162        O  0.27109270  0.25377324  0.41870259    -0.52300
C163        C  0.31416044  0.31070007  0.41186659     0.69700
O164        O  0.32983447  0.29610725  0.39908791    -0.47100
C165        C  0.27262760  0.28042255  0.33619499     0.74400
O166        O  0.33950121  0.25892742  0.36707146    -0.59000
O167        O  0.26818344  0.26084667  0.35204245    -0.49100
O168        O  0.31109973  0.23121926  0.36039939    -0.55400
C169        C  0.28650200  0.24191890  0.43554528     0.84600
O170        O  0.29168827  0.30291250  0.41110642    -0.57300
O171        O  0.29124764  0.29313255  0.34533191    -0.60600
C172        C  0.37241074  0.47806422  0.99825942     0.79700
N173        N  0.39455101  0.47835039  0.01411588    -0.78600
C174        C  0.40687124  0.50023729  0.02010075     0.82200
N175        N  0.39704012  0.52217765  0.00952397    -0.78500
C176        C  0.37488268  0.52245182  0.99369247     0.82300
N177        N  0.36253827  0.50030231  0.98802197    -0.80300
C178        C  0.62555447  0.52400995  0.00437521     0.79700
N179        N  0.60314169  0.52422969  0.01964778    -0.78600
C180        C  0.59100103  0.50249981  0.02704901     0.82200
N181        N  0.60141832  0.48017965  0.01871969    -0.78500
C182        C  0.62384516  0.47937658  0.00336060     0.82300
N183        N  0.63582319  0.50143205  0.99606980    -0.80300
In184      In  0.69417299  0.27114500  0.37847633     1.36900
C185        C  0.68006369  0.31330860  0.40825997     0.77100
O186        O  0.68795236  0.24219261  0.41554298    -0.61400
O187        O  0.72362177  0.26034131  0.41432341    -0.52300
C188        C  0.66098223  0.24469955  0.34463092     0.69700
O189        O  0.65778091  0.26770316  0.35121010    -0.47100
C190        C  0.72530853  0.28168967  0.33142791     0.74400
O191        O  0.66558679  0.29448133  0.40529310    -0.59000
O192        O  0.72760447  0.26191340  0.34754654    -0.49100
O193        O  0.70153535  0.31034570  0.39629891    -0.55400
C194        C  0.70955437  0.24418447  0.42725958     0.84600
O195        O  0.68108947  0.23558712  0.35513520    -0.57300
O196        O  0.70772392  0.29597224  0.33986091    -0.60600
In197      In  0.69938283  0.73045071  0.38052363     1.36900
C198        C  0.66743018  0.75971706  0.34982208     0.77100
O199        O  0.68993043  0.75711056  0.41929605    -0.61400
O200        O  0.72709838  0.74267931  0.41779513    -0.52300
C201        C  0.68520334  0.68740708  0.40768793     0.69700
O202        O  0.66975693  0.70272244  0.39592803    -0.47100
C203        C  0.72916520  0.71897337  0.33242461     0.74400
O204        O  0.66190413  0.73754467  0.35828456    -0.59000
O205        O  0.73382851  0.73734080  0.35029548    -0.49100
O206        O  0.68942659  0.76670724  0.35684971    -0.55400
C207        C  0.71145818  0.75675593  0.43144900     0.84600
O208        O  0.70792374  0.69420766  0.40554577    -0.57300
O209        O  0.70980683  0.70650248  0.33949893    -0.60600
In210      In  0.31030449  0.73346693  0.37469646     1.36900
C211        C  0.34506425  0.76102658  0.34495592     0.77100
O212        O  0.29928729  0.70899702  0.33427651    -0.61400
O213        O  0.27796388  0.74218931  0.34137666    -0.52300
C214        C  0.32195697  0.69066780  0.40436831     0.69700
O215        O  0.33795614  0.70781418  0.39897294    -0.47100
C216        C  0.29529538  0.75935227  0.42488614     0.74400
O217        O  0.34682565  0.73740314  0.34785841    -0.59000
O218        O  0.27992955  0.74708262  0.40813621    -0.49100
O219        O  0.32556618  0.77030744  0.35706214    -0.55400
C220        C  0.28147468  0.72263697  0.32506600     0.84600
O221        O  0.30010058  0.69557555  0.39479187    -0.57300
O222        O  0.31780897  0.75829937  0.41588816    -0.60600
C223        C  0.50824696  0.90736876  0.25838823     0.79700
N224        N  0.53096611  0.89555664  0.26035973    -0.78600
C225        C  0.53197145  0.87004642  0.26350409     0.82200
N226        N  0.51032013  0.85663018  0.26511611    -0.78500
C227        C  0.48760937  0.86796593  0.26385580     0.82300
N228        N  0.48663463  0.89345721  0.26060623    -0.80300
C229        C  0.40899675  0.49684505  0.13925217     0.79700
N230        N  0.39548739  0.51856568  0.14258603    -0.78600
C231        C  0.37013841  0.51760054  0.14705787     0.82200
N232        N  0.35852451  0.49487833  0.14800557    -0.78500
C233        C  0.37143256  0.47311797  0.14492207     0.82300
N234        N  0.39682963  0.47408755  0.14085411    -0.80300
C235        C  0.97675147  0.37794776  0.36765778     0.79700
N236        N  0.97650513  0.40059597  0.38256676    -0.78600
C237        C  0.99820932  0.41156345  0.39244831     0.82200
N238        N  0.02037330  0.39991631  0.38643449    -0.78500
C239        C  0.02109760  0.37742143  0.37114994     0.82300
N240        N  0.99911083  0.36641665  0.36186325    -0.80300
C241        C  0.98401660  0.62884453  0.36734056     0.79700
N242        N  0.98437417  0.60681366  0.38374095    -0.78600
C243        C  0.00639217  0.59508694  0.39039651     0.82200
N244        N  0.02826454  0.60551280  0.38015456    -0.78500
C245        C  0.02846512  0.62758886  0.36402446     0.82300
N246        N  0.00624036  0.63920510  0.35753533    -0.80300
In247      In  0.23081973  0.30328503  0.25990918     1.36900
C248        C  0.18872194  0.31825554  0.28837890     0.77100
O249        O  0.20412311  0.29341952  0.22103283    -0.61400
O250        O  0.23577848  0.26987196  0.22754926    -0.52300
C251        C  0.26033440  0.33570483  0.22903112     0.69700
O252        O  0.23992730  0.34210155  0.24192589    -0.47100
C253        C  0.25752827  0.28816128  0.30923787     0.74400
O254        O  0.20384433  0.33344676  0.27538977    -0.59000
O255        O  0.24223152  0.27376105  0.29541515    -0.49100
O256        O  0.19549159  0.29550725  0.28733699    -0.55400
C257        C  0.21625112  0.27448157  0.21190120     0.84600
O258        O  0.26542554  0.31259365  0.23161804    -0.57300
O259        O  0.25908931  0.30999701  0.29792640    -0.60600
In260      In  0.76803938  0.30131453  0.25441486     1.36900
C261        C  0.81073003  0.31494741  0.28228155     0.77100
O262        O  0.74168198  0.30992118  0.29348873    -0.61400
O263        O  0.75498795  0.27237460  0.29031468    -0.52300
C264        C  0.74187940  0.33658086  0.22451477     0.69700
O265        O  0.76499117  0.33904352  0.23067050    -0.47100
C266        C  0.77891070  0.27160126  0.20580842     0.74400
O267        O  0.79421792  0.33058896  0.27394457    -0.59000
O268        O  0.75819912  0.26987920  0.22012168    -0.49100
O269        O  0.80511043  0.29219534  0.27700809    -0.55400
C270        C  0.74129525  0.28801109  0.30460033     0.84600
O271        O  0.73248921  0.31573506  0.23276122    -0.57300
O272        O  0.79376321  0.28788073  0.21666809    -0.60600
In273      In  0.77215995  0.69865834  0.25589339     1.36900
C274        C  0.81579803  0.68594369  0.28266229     0.77100
O275        O  0.79706653  0.70951158  0.21581919    -0.61400
O276        O  0.76501547  0.73219901  0.22488148    -0.52300
C277        C  0.74415497  0.66535648  0.22429983     0.69700
O278        O  0.76316001  0.65910675  0.24023716    -0.47100
C279        C  0.74473695  0.71223170  0.30542725     0.74400
O280        O  0.80083891  0.66996927  0.27091168    -0.59000
O281        O  0.76035111  0.72701753  0.29281560    -0.49100
O282        O  0.80827091  0.70841685  0.28092294    -0.55400
C283        C  0.78397719  0.72815154  0.20786727     0.84600
O284        O  0.73969070  0.68868944  0.22434584    -0.57300
O285        O  0.74319401  0.69090185  0.29276119    -0.60600
In286      In  0.23900624  0.70012612  0.24835054     1.36900
C287        C  0.19606802  0.68781903  0.27728606     0.77100
O288        O  0.26699189  0.69359497  0.28655165    -0.61400
O289        O  0.25149829  0.73019404  0.28348421    -0.52300
C290        C  0.26527559  0.66490140  0.21811380     0.69700
O291        O  0.24312930  0.66122026  0.22790457    -0.47100
C292        C  0.22660989  0.72758280  0.19846367     0.74400
O293        O  0.21366292  0.67231874  0.27283781    -0.59000
O294        O  0.24569725  0.73282932  0.21486077    -0.49100
O295        O  0.20069836  0.70980942  0.26754979    -0.55400
C296        C  0.26618459  0.71549915  0.29771920     0.84600
O297        O  0.27376141  0.68674751  0.22336777    -0.57300
O298        O  0.21426279  0.70869102  0.20763639    -0.60600
C299        C  0.59998643  0.50241118  0.13501038     0.79700
N300        N  0.61342551  0.48095886  0.14035218    -0.78600
C301        C  0.63877727  0.48210373  0.14444525     0.82200
N302        N  0.65055054  0.50475472  0.14306947    -0.78500
C303        C  0.63764037  0.52628008  0.13789205     0.82300
N304        N  0.61222330  0.52511664  0.13422276    -0.80300
C305        C  0.69194630  0.57174180  0.14432306    -0.11300
C306        C  0.68107349  0.59182876  0.16089711     0.05800
C307        C  0.65477291  0.59204616  0.16498182    -0.10100
C308        C  0.63999504  0.57157162  0.15497583    -0.11800
C309        C  0.65133008  0.55053770  0.14089683    -0.01500
C310        C  0.67727464  0.55132868  0.13453842    -0.10600
C311        C  0.69744198  0.61109984  0.17617046     0.05800
H312        H  0.64583098  0.60724853  0.17767647     0.07700
H313        H  0.62007915  0.57139798  0.16033729     0.11200
H314        H  0.68648188  0.53550238  0.12337659     0.11500
H315        H  0.71202454  0.57132128  0.14004682     0.07800
C316        C  0.71966738  0.60364685  0.19140782    -0.11400
C317        C  0.73485099  0.62128781  0.20681689    -0.10600
C318        C  0.72824741  0.64685883  0.20732734    -0.01500
C319        C  0.70611738  0.65444241  0.19200171    -0.11700
C320        C  0.69079847  0.63672205  0.17668816    -0.10100
H321        H  0.72508497  0.58398638  0.19202102     0.07800
H322        H  0.75169229  0.61486478  0.21853046     0.11500
H323        H  0.70053343  0.67406666  0.19206494     0.11200
H324        H  0.67386531  0.64305931  0.16510895     0.07800
C325        C  0.68919917  0.44261834  0.18243162    -0.11300
C326        C  0.68237411  0.41800172  0.17372516     0.05800
C327        C  0.66073795  0.41444404  0.15515198    -0.10100
C328        C  0.64631359  0.43514800  0.14550427    -0.11800
C329        C  0.65345498  0.45973785  0.15403674    -0.01500
C330        C  0.67503634  0.46317254  0.17259440    -0.10600
C331        C  0.69768680  0.39633521  0.18473785     0.05800
H332        H  0.65509406  0.39568079  0.14788902     0.07700
H333        H  0.62981294  0.43198723  0.13115915     0.11200
H334        H  0.68081669  0.48184728  0.18005711     0.11500
H335        H  0.70533565  0.44601101  0.19732798     0.07800
C336        C  0.72409700  0.39820724  0.18591767    -0.11400
C337        C  0.73849505  0.37864359  0.19837970    -0.10600
C338        C  0.72682074  0.35667998  0.20972712    -0.01500
C339        C  0.70049652  0.35450876  0.20796594    -0.11700
C340        C  0.68606468  0.37413500  0.19561327    -0.10100
H341        H  0.73366784  0.41492463  0.17731805     0.07800
H342        H  0.75873791  0.38079026  0.19937007     0.11500
H343        H  0.69098379  0.33782770  0.21677848     0.11200
H344        H  0.66579300  0.37224354  0.19543807     0.07800
C345        C  0.91350536  0.63740346  0.35741232    -0.11300
C346        C  0.91213829  0.65746821  0.33599677     0.05800
C347        C  0.93466283  0.66930003  0.32650823    -0.10100
C348        C  0.95802785  0.66058255  0.33728538    -0.11800
C349        C  0.95938496  0.63991702  0.35793902    -0.18300
C350        C  0.93673902  0.62878339  0.36824785    -0.10600
C351        C  0.88733900  0.66510376  0.32273493     0.05800
H352        H  0.93426827  0.68473221  0.30990354     0.07700
H353        H  0.97502968  0.66963147  0.32879481     0.11200
H354        H  0.93689640  0.61298846  0.38431839     0.11500
H355        H  0.89652291  0.62817261  0.36564164     0.07800
C356        C  0.86972693  0.64662066  0.31360738    -0.11400
C357        C  0.84651980  0.65343073  0.30078699    -0.10600
C358        C  0.84022307  0.67891182  0.29692778    -0.01500
C359        C  0.85766045  0.69748024  0.30628028    -0.11700
C360        C  0.88103929  0.69065165  0.31887794    -0.10100
H361        H  0.87408667  0.62678287  0.31586398     0.07800
H362        H  0.83352528  0.63870593  0.29376870     0.11500
H363        H  0.85332001  0.71730230  0.30358813     0.11200
H364        H  0.89408780  0.70533393  0.32589463     0.07800
C365        C  0.12700062  0.68746416  0.30005017    -0.11300
C366        C  0.12484948  0.66482526  0.31723692     0.05800
C367        C  0.14690010  0.65067906  0.32226570    -0.10100
C368        C  0.16995304  0.65826120  0.30944735    -0.11800
C369        C  0.17186392  0.68058924  0.29203824    -0.01500
C370        C  0.15027393  0.69537191  0.28792359    -0.10600
C371        C  0.09983973  0.65559409  0.32919678     0.05800
H372        H  0.14654474  0.63366010  0.33620782     0.07700
H373        H  0.18636878  0.64664813  0.31328213     0.11200
H374        H  0.15121269  0.71265471  0.27443059     0.11500
H375        H  0.11064065  0.69883075  0.29508972     0.07800
C376        C  0.08016362  0.67241112  0.33654242    -0.11400
C377        C  0.05679068  0.66345088  0.34732107    -0.10600
C378        C  0.05272649  0.63753344  0.35182220    -0.01500
C379        C  0.07228327  0.62076336  0.34470930    -0.11700
C380        C  0.09529309  0.62958323  0.33314251    -0.10100
H381        H  0.08280820  0.69257628  0.33446676     0.07800
H382        H  0.04209648  0.67681957  0.35281139     0.11500
H383        H  0.06962862  0.60061585  0.34748878     0.11200
H384        H  0.10931899  0.61577612  0.32686459     0.07800
C385        C  0.92469321  0.33220809  0.34484100    -0.11300
C386        C  0.90657679  0.34868422  0.33221675     0.05800
C387        C  0.91236325  0.37458848  0.33079109    -0.10100
C388        C  0.93505224  0.38386070  0.34256305    -0.11800
C389        C  0.95296997  0.36747490  0.35524058    -0.01500
C390        C  0.94780452  0.34150150  0.35590477    -0.10600
C391        C  0.88171644  0.33925115  0.32063840     0.05800
H392        H  0.89945780  0.38783953  0.32033002     0.07700
H393        H  0.93878456  0.40394158  0.34127763     0.11200
H394        H  0.96135443  0.32851862  0.36568241     0.11500
H395        H  0.92090007  0.31219136  0.34671917     0.07800
C396        C  0.87925993  0.31529110  0.30666827    -0.11400
C397        C  0.85601121  0.30706607  0.29495224    -0.10600
C398        C  0.83486240  0.32278814  0.29641932    -0.01500
C399        C  0.83714575  0.34653445  0.31054978    -0.11700
C400        C  0.86016019  0.35452651  0.32288709    -0.10100
H401        H  0.89539358  0.30309021  0.30404278     0.07800
H402        H  0.85474089  0.28871022  0.28391369     0.11500
H403        H  0.82104969  0.35891460  0.31222400     0.11200
H404        H  0.86095194  0.37274140  0.33427184     0.07800
C405        C  0.07083633  0.33621760  0.33263835    -0.11300
C406        C  0.09305978  0.34926898  0.34039783     0.05800
C407        C  0.09151476  0.37060155  0.35973322    -0.10100
C408        C  0.06823979  0.37910371  0.37052715    -0.11800
C409        C  0.04582648  0.36662455  0.36202487    -0.01500
C410        C  0.04742431  0.34487069  0.34322335    -0.10600
C411        C  0.11777524  0.34126116  0.32767880     0.05800
H412        H  0.10836950  0.38080599  0.36638739     0.07700
H413        H  0.06784897  0.39583534  0.38505923     0.11200
H414        H  0.03058384  0.33483210  0.33612864     0.11500
H415        H  0.07152316  0.31976760  0.31760939     0.07800
C416        C  0.12513311  0.31588199  0.32879833    -0.11400
C417        C  0.14844352  0.30849218  0.31663151    -0.10600
C418        C  0.16472757  0.32629411  0.30284094    -0.01500
C419        C  0.15741600  0.35169302  0.30189609    -0.11700
C420        C  0.13421128  0.35910025  0.31426022    -0.10100
H421        H  0.11291639  0.30181946  0.33926918     0.07800
H422        H  0.15361061  0.28876983  0.31771190     0.11500
H423        H  0.16950049  0.36579252  0.29127919     0.11200
H424        H  0.12889198  0.37876367  0.31284945     0.07800
C425        C  0.02636732  0.52851686  0.40921074    -0.11300
C426        C  0.00366603  0.51757240  0.41960591     0.05800
C427        C  0.98309538  0.53353952  0.42549434    -0.10100
C428        C  0.98437190  0.55921300  0.41790654    -0.11800
C429        C  0.00637461  0.56954042  0.40469599    -0.01500
C430        C  0.02774257  0.55418093  0.40207874    -0.10600
C431        C  0.00066773  0.48955277  0.41976903     0.05800
H432        H  0.96559030  0.52599065  0.43462757     0.07700
H433        H  0.96776578  0.57069043  0.42102537     0.11200
H434        H  0.04512826  0.56152653  0.39233889     0.11500
H435        H  0.04264184  0.51702353  0.40423880     0.07800
C436        C  0.97800628  0.47845534  0.40952837    -0.11400
C437        C  0.97668455  0.45268696  0.40283081    -0.10600
C438        C  0.99805925  0.43740757  0.40582366    -0.01500
C439        C  0.02004108  0.44796749  0.41871171    -0.11700
C440        C  0.02127307  0.47370461  0.42580388    -0.10100
H441        H  0.96172403  0.48988257  0.40443254     0.07800
H442        H  0.95934446  0.44514308  0.39326188     0.11500
H443        H  0.03666830  0.43657517  0.42207706     0.11200
H444        H  0.03875759  0.48136262  0.43478572     0.07800
C445        C  0.47651266  0.52124771  0.14005073    -0.11300
C446        C  0.49038001  0.49943259  0.13294090     0.05800
C447        C  0.47705921  0.47698438  0.12662844    -0.10100
C448        C  0.45072230  0.47623261  0.12814061    -0.11800
C449        C  0.43691823  0.49793674  0.13585087    -0.01500
C450        C  0.45017385  0.52053888  0.14133858    -0.10600
C451        C  0.51854537  0.50000397  0.13255968     0.05800
H452        H  0.48697216  0.45995155  0.12027989     0.07700
H453        H  0.44118434  0.45856677  0.12334706     0.11200
H454        H  0.44023884  0.53763824  0.14739558     0.11500
H455        H  0.48601571  0.53882264  0.14540811     0.07800
C456        C  0.53180575  0.52142386  0.12193200    -0.11400
C457        C  0.55817612  0.52206280  0.12215353    -0.10600
C458        C  0.57203065  0.50128073  0.13293256    -0.01500
C459        C  0.55882015  0.47971636  0.14304028    -0.11700
C460        C  0.53247875  0.47913663  0.14301531    -0.10100
H461        H  0.52181675  0.53763139  0.11300788     0.07800
H462        H  0.56771312  0.53887512  0.11384508     0.11500
H463        H  0.56881651  0.46341897  0.15173190     0.11200
H464        H  0.52304056  0.46245672  0.15185062     0.07800
C465        C  0.28312768  0.60347413  0.17889947    -0.11300
C466        C  0.30959075  0.60529302  0.17767951     0.05800
C467        C  0.32104866  0.62784033  0.18781082    -0.10100
C468        C  0.30653624  0.64755614  0.19992353    -0.11800
C469        C  0.28029849  0.64506413  0.20259278    -0.01500
C470        C  0.26870229  0.62298605  0.19154332    -0.10600
C471        C  0.32510233  0.58311845  0.16817554     0.05800
H472        H  0.34129809  0.62992361  0.18763241     0.07700
H473        H  0.31596606  0.66440378  0.20832128     0.11200
H474        H  0.24847565  0.62069879  0.19295120     0.11500
H475        H  0.27348020  0.58676034  0.17050689     0.07800
C476        C  0.31690546  0.55865633  0.17579620    -0.11400
C477        C  0.33147952  0.53773261  0.16842634    -0.10600
C478        C  0.35499167  0.54047609  0.15360379    -0.01500
C479        C  0.36342394  0.56484815  0.14589980    -0.11700
C480        C  0.34853814  0.58596087  0.15292291    -0.10100
H481        H  0.29945020  0.55556372  0.18833547     0.07800
H482        H  0.32443990  0.51930621  0.17513850     0.11500
H483        H  0.38137932  0.56756502  0.13433754     0.11200
H484        H  0.35538797  0.60447757  0.14635129     0.07800
C485        C  0.35294223  0.40789708  0.17371069    -0.11300
C486        C  0.32668593  0.40841295  0.16901667     0.05800
C487        C  0.31642514  0.42854240  0.15199807    -0.10100
C488        C  0.33152355  0.44863039  0.14228884    -0.11800
C489        C  0.35739575  0.44911987  0.14902101    -0.01500
C490        C  0.36820463  0.42808916  0.16369951    -0.10600
C491        C  0.30963450  0.38930447  0.18363641     0.05800
H492        H  0.29646340  0.42920173  0.14703345     0.07700
H493        H  0.32268680  0.46438623  0.13057898     0.11200
H494        H  0.38807451  0.42800378  0.16929797     0.11500
H495        H  0.36147845  0.39265492  0.18670519     0.07800
C496        C  0.31625696  0.36369925  0.18534346    -0.11400
C497        C  0.30010885  0.34616327  0.19971669    -0.10600
C498        C  0.27707963  0.35389318  0.21277405    -0.01500
C499        C  0.27043347  0.37940444  0.21096910    -0.11700
C500        C  0.28650685  0.39687449  0.19668246    -0.10100
H501        H  0.33381161  0.35719892  0.17538443     0.07800
H502        H  0.30572383  0.32657645  0.20080074     0.11500
H503        H  0.25290477  0.38595790  0.22097177     0.11200
H504        H  0.28098962  0.41650207  0.19646264     0.07800
C505        C  0.38452471  0.81753726  0.32143544    -0.11300
C506        C  0.40157582  0.80699200  0.29988908     0.05800
C507        C  0.39927237  0.78112663  0.29269192    -0.10100
C508        C  0.38100710  0.76612424  0.30739667    -0.11800
C509        C  0.36423872  0.77674132  0.32904412    -0.01500
C510        C  0.36594750  0.80263276  0.33559992    -0.10600
C511        C  0.42267296  0.82247061  0.28680853     0.05800
H512        H  0.41165662  0.77236821  0.27577235     0.07700
H513        H  0.37987930  0.74625023  0.30168362     0.11200
H514        H  0.35330247  0.81125474  0.35236784     0.11500
H515        H  0.38595076  0.83716165  0.32816315     0.07800
C516        C  0.41999485  0.84853148  0.28116479    -0.11400
C517        C  0.44078178  0.86337681  0.27245180    -0.10600
C518        C  0.46463837  0.85243297  0.26896729    -0.01500
C519        C  0.46692393  0.82619445  0.27285729    -0.11700
C520        C  0.44634178  0.81149684  0.28182732    -0.10100
H521        H  0.40193770  0.85757954  0.28403469     0.07800
H522        H  0.43830140  0.88348079  0.26937211     0.11500
H523        H  0.48492459  0.81697009  0.27018122     0.11200
H524        H  0.44940200  0.79165790  0.28627305     0.07800
C525        C  0.57762375  0.81627622  0.26850826    -0.11300
C526        C  0.59564272  0.82572215  0.28961700     0.05800
C527        C  0.59437304  0.85133276  0.29837257    -0.10100
C528        C  0.57472948  0.86663435  0.28772146    -0.11800
C529        C  0.55582000  0.85649717  0.26853330    -0.01500
C530        C  0.55785248  0.83140356  0.25835607    -0.10600
C531        C  0.61459578  0.80853608  0.30384926     0.05800
H532        H  0.60773309  0.85925715  0.31481022     0.07700
H533        H  0.57337866  0.88582044  0.29624515     0.11200
H534        H  0.54354529  0.82317589  0.24339237     0.11500
H535        H  0.57835992  0.79693924  0.26044003     0.07800
C536        C  0.60825393  0.78330782  0.31076684    -0.11400
C537        C  0.62553652  0.76737803  0.32529088    -0.10600
C538        C  0.64952023  0.77630368  0.33344543    -0.01500
C539        C  0.65604346  0.80136687  0.32641829    -0.11700
C540        C  0.63880330  0.81729735  0.31171470    -0.10100
H541        H  0.58965269  0.77595440  0.30575075     0.07800
H542        H  0.61998820  0.74816587  0.33053540     0.11500
H543        H  0.67446124  0.80873173  0.33244933     0.11200
H544        H  0.64450648  0.83643104  0.30641406     0.07800
C545        C  0.68782153  0.62485598  0.45056767    -0.11300
C546        C  0.66222351  0.61834476  0.45273257     0.05800
C547        C  0.64426914  0.63462676  0.43964953    -0.10100
C548        C  0.65175403  0.65694226  0.42476316    -0.11800
C549        C  0.67733323  0.66354342  0.42285414    -0.01500
C550        C  0.69529960  0.64725575  0.43583997    -0.10600
C551        C  0.65421419  0.59444059  0.46802667     0.05800
H552        H  0.62443923  0.62991103  0.44055602     0.07700
H553        H  0.63750668  0.66906385  0.41481818     0.11200
H554        H  0.71514700  0.65187242  0.43471864     0.11500
H555        H  0.70204001  0.61273965  0.46059491     0.07800
C556        C  0.66668429  0.57171529  0.46147517    -0.11400
C557        C  0.65799884  0.54889117  0.47410607    -0.10600
C558        C  0.63672736  0.54832399  0.49371774    -0.01500
C559        C  0.62492440  0.57129077  0.00126470    -0.11700
C560        C  0.63349821  0.59402510  0.48847176    -0.10100
H561        H  0.68263726  0.57147271  0.44566839     0.07800
H562        H  0.66753311  0.53162279  0.46776444     0.11500
H563        H  0.60859565  0.57170560  0.01646722     0.11200
H564        H  0.62376628  0.61130494  0.99434231     0.07800
C565        C  0.62519151  0.41090195  0.47754335    -0.11300
C566        C  0.65013648  0.40778212  0.46713307     0.05800
C567        C  0.66669495  0.42861036  0.46968986    -0.10100
C568        C  0.65836423  0.45183812  0.48153024    -0.11800
C569        C  0.63342583  0.45472770  0.49181660    -0.01500
C570        C  0.61707755  0.43385810  0.48996598    -0.10600
C571        C  0.65842894  0.38322110  0.45291724     0.05800
H572        H  0.68618894  0.42706907  0.46270071     0.07700
H573        H  0.67149445  0.46749506  0.98277578     0.11200
H574        H  0.59763752  0.43540443  0.49729653     0.11500
H575        H  0.61151177  0.39584653  0.47538022     0.07800
C576        C  0.64679823  0.36016433  0.46131249    -0.11400
C577        C  0.65355956  0.33749523  0.44665762    -0.10600
C578        C  0.67264969  0.33711037  0.42393358    -0.01500
C579        C  0.68477848  0.35982313  0.41607505    -0.11700
C580        C  0.67756566  0.38258416  0.43001901    -0.10100
H581        H  0.63250946  0.35944788  0.47936686     0.07800
H582        H  0.64410718  0.32018714  0.45343507     0.11500
H583        H  0.69947510  0.36008903  0.39846693     0.11200
H584        H  0.68670870  0.39972747  0.42216335     0.07800
C585        C  0.37547088  0.58783959  0.45847202    -0.11300
C586        C  0.34982135  0.59424747  0.45826653     0.05800
C587        C  0.33220362  0.57619147  0.46896634    -0.10100
C588        C  0.34012263  0.55251341  0.47976187    -0.11800
C589        C  0.36581531  0.54662678  0.98068527    -0.01500
C590        C  0.38335044  0.56449005  0.96980817    -0.10600
C591        C  0.34172619  0.61947150  0.44637972     0.05800
H592        H  0.31233172  0.58046310  0.46949792     0.07700
H593        H  0.32625109  0.53909163  0.48819156     0.11200
H594        H  0.40326973  0.56029130  0.96980520     0.11500
H595        H  0.38958169  0.60078646  0.44957606     0.07800
C596        C  0.35706914  0.64097182  0.45061001    -0.11400
C597        C  0.35055175  0.66416639  0.43729731    -0.10600
C598        C  0.32828815  0.66657420  0.41995558    -0.01500
C599        C  0.31239575  0.64549088  0.41679055    -0.11700
C600        C  0.31910477  0.62217594  0.42962815    -0.10100
H601        H  0.37428255  0.63989368  0.46408732     0.07800
H602        H  0.36296811  0.68020213  0.44047289     0.11500
H603        H  0.29510645  0.64681987  0.40347665     0.11200
H604        H  0.30692276  0.60612115  0.42551373     0.07800
C605        C  0.46936113  0.52255671  0.05226853    -0.11300
C606        C  0.48419543  0.50080828  0.04863696     0.05800
C607        C  0.47213640  0.47802742  0.04059323    -0.10100
C608        C  0.44647690  0.47751012  0.03367869    -0.11800
C609        C  0.43236036  0.49982693  0.03400448    -0.01500
C610        C  0.44380812  0.52215290  0.04461190    -0.10600
C611        C  0.51222763  0.50247832  0.04905088     0.05800
H612        H  0.48271182  0.46085294  0.03741667     0.07700
H613        H  0.43816826  0.45990822  0.02588454     0.11200
H614        H  0.43325122  0.53953753  0.04586518     0.11500
H615        H  0.47767513  0.54022671  0.05975909     0.07800
C616        C  0.52435397  0.52446726  0.03821951    -0.11400
C617        C  0.55029218  0.52497499  0.03349587    -0.10600
C618        C  0.56479430  0.50334259  0.03870830    -0.01500
C619        C  0.55311568  0.48182962  0.05140661    -0.11700
C620        C  0.52712743  0.48147682  0.05679058    -0.10100
H621        H  0.51375372  0.54092471  0.53143600     0.07800
H622        H  0.55866986  0.54187069  0.52363619     0.11500
H623        H  0.56391662  0.46501274  0.05616679     0.11200
H624        H  0.51866081  0.46446786  0.06617561     0.07800
C625        C  0.35379711  0.36584182  0.43950104    -0.11300
C626        C  0.33568237  0.38166909  0.45320272     0.05800
C627        C  0.31036465  0.37392403  0.45320400    -0.10100
C628        C  0.30335901  0.35077504  0.43993885    -0.11800
C629        C  0.32151408  0.33500984  0.42626436    -0.01500
C630        C  0.34678955  0.34279899  0.42614340    -0.10600
C631        C  0.34340492  0.40618052  0.46719634     0.05800
H632        H  0.29604482  0.38564159  0.46377936     0.07700
H633        H  0.28372295  0.34522660  0.44034820     0.11200
H634        H  0.36116518  0.33111461  0.41561911     0.11500
H635        H  0.37340265  0.37146556  0.43871819     0.07800
C636        C  0.36528590  0.40769300  0.48545278    -0.11400
C637        C  0.37395371  0.43090060  0.49653089    -0.10600
C638        C  0.36109102  0.45334881  0.98945838    -0.01500
C639        C  0.33857804  0.45175013  0.47227385    -0.11700
C640        C  0.32975881  0.42835949  0.46136891    -0.10100
H641        H  0.37593173  0.39088265  0.49085337     0.07800
H642        H  0.39124620  0.43122730  0.00990773     0.11500
H643        H  0.32814150  0.46860819  0.96652113     0.11200
H644        H  0.31281598  0.42774800  0.44732249     0.07800
C645        C  0.48066080  0.02935486  0.24281034    -0.11300
C646        C  0.50340746  0.01673469  0.24884688     0.05800
C647        C  0.52494209  0.03133960  0.25546314    -0.10100
C648        C  0.52355007  0.05763871  0.25731793    -0.11800
C649        C  0.50053204  0.07007731  0.25300604    -0.01500
C650        C  0.47919960  0.05564660  0.24510125    -0.10600
C651        C  0.50443563  0.98855211  0.24984307     0.05800
H652        H  0.54276247  0.02246791  0.26048149     0.07700
H653        H  0.54038969  0.06813780  0.26331618     0.11200
H654        H  0.46126346  0.06463848  0.24099236     0.11500
H655        H  0.46384976  0.01891856  0.23654830     0.07800
C656        C  0.48365733  0.97445147  0.26065780    -0.11400
C657        C  0.48484283  0.94818026  0.26298932    -0.10600
C658        C  0.50693693  0.93522697  0.25498655    -0.01500
C659        C  0.52766939  0.94917291  0.24389314    -0.11700
C660        C  0.52639256  0.97547103  0.24118995    -0.10100
H661        H  0.46658351  0.98370573  0.26814096     0.07800
H662        H  0.46854815  0.93805433  0.27174853     0.11500
H663        H  0.54482774  0.93974058  0.23700972     0.11200
H664        H  0.54257899  0.98549519  0.23198305     0.07800
C665        C  0.42671058  0.18549024  0.27922213    -0.11300
C666        C  0.40837086  0.17369386  0.29794214     0.05800
C667        C  0.40984746  0.14747823  0.30282117    -0.10100
C668        C  0.43030303  0.13375996  0.29098260    -0.11800
C669        C  0.44955642  0.14615226  0.27433539    -0.01500
C670        C  0.44709495  0.17194331  0.26775844    -0.10600
C671        C  0.38897224  0.18930817  0.31372324     0.05800
H672        H  0.39596893  0.13786257  0.31714175     0.07700
H673        H  0.43185914  0.11389769  0.29651923     0.11200
H674        H  0.46150247  0.18190680  0.25463875     0.11500
H675        H  0.42571794  0.20547456  0.27419548     0.07800
C676        C  0.39573892  0.21291924  0.32624265    -0.11400
C677        C  0.37777515  0.22839581  0.34008649    -0.10600
C678        C  0.35259571  0.22059280  0.34204727    -0.01500
C679        C  0.34575778  0.19676140  0.33025133    -0.11700
C680        C  0.36382343  0.18120614  0.31622404    -0.10100
H681        H  0.41507104  0.21945167  0.32547643     0.07800
H682        H  0.38364840  0.24650368  0.34931783     0.11500
H683        H  0.32644073  0.19024032  0.33166803     0.11200
H684        H  0.35805263  0.16313883  0.30679295     0.07800
C685        C  0.60403776  0.22589560  0.29651552    -0.11300
C686        C  0.60468267  0.19937282  0.29847000     0.05800
C687        C  0.62527225  0.18803268  0.31346365    -0.10100
C688        C  0.64404516  0.20283813  0.32740460    -0.11800
C689        C  0.64251665  0.22929587  0.32699110    -0.01500
C690        C  0.62263325  0.24068230  0.31082881    -0.10600
C691        C  0.58291110  0.18384735  0.28750858     0.05800
H692        H  0.62632370  0.16773470  0.31572187     0.07700
H693        H  0.65923661  0.19354457  0.33964732     0.11200
H694        H  0.62121390  0.26102803  0.30972871     0.11500
H695        H  0.58881187  0.23528893  0.28448812     0.07800
C696        C  0.55833220  0.19274622  0.29194410    -0.11400
C697        C  0.53760363  0.17790458  0.28403660    -0.10600
C698        C  0.54069124  0.15347441  0.27176024    -0.01500
C699        C  0.56523898  0.14460333  0.26663955    -0.11700
C700        C  0.58615341  0.15966584  0.27438362    -0.10100
H701        H  0.55498129  0.21094923  0.30262384     0.07800
H702        H  0.51905792  0.18544669  0.28854687     0.11500
H703        H  0.56828761  0.12594308  0.25706812     0.11200
H704        H  0.60483323  0.15231276  0.27033490     0.07800
C705        C  0.89942556  0.71956339  0.07072152    -0.11300
C706        C  0.89290185  0.69564662  0.05881307     0.05800
C707        C  0.86757901  0.68799167  0.05978138    -0.10100
C708        C  0.84924634  0.70378879  0.07260195    -0.11800
C709        C  0.85584603  0.72755260  0.08472487    -0.01500
C710        C  0.88109407  0.73535571  0.08349892    -0.10600
C711        C  0.91262412  0.67870705  0.04602734     0.05800
H712        H  0.86193084  0.66983188  0.05052491     0.07700
H713        H  0.82990024  0.69729007  0.07327688     0.11200
H714        H  0.88674831  0.75347171  0.09291688     0.11500
H715        H  0.91884543  0.72587071  0.07081934     0.07800
C716        C  0.93241674  0.68875706  0.02808195    -0.11400
C717        C  0.95241634  0.67359408  0.01878675    -0.10600
C718        C  0.95309460  0.64795005  0.02699768    -0.01500
C719        C  0.93263589  0.63740138  0.04328005    -0.11700
C720        C  0.91257171  0.65269927  0.05282378    -0.10100
H721        H  0.93271821  0.70853213  0.02177533     0.07800
H722        H  0.96783037  0.68216445  0.00592026     0.11500
H723        H  0.93281628  0.61773895  0.05012807     0.11200
H724        H  0.89762452  0.64442074  0.06675460     0.07800
C725        C  0.08987051  0.65509458  0.02637324    -0.11300
C726        C  0.08741502  0.67951502  0.03912124     0.05800
C727        C  0.06318533  0.68892137  0.04449557    -0.10100
C728        C  0.04202223  0.67443069  0.03775452    -0.11800
C729        C  0.04425075  0.64984006  0.02564952    -0.01500
C730        C  0.06844835  0.64034629  0.01974124    -0.10600
C731        C  0.10959735  0.69484463  0.04901553     0.05800
H732        H  0.06046549  0.70728857  0.05502055     0.07700
H733        H  0.02380169  0.68246287  0.04296484     0.11200
H734        H  0.07081220  0.62154787  0.01029932     0.11500
H735        H  0.10831313  0.64734997  0.02176355     0.07800
C736        C  0.13005837  0.68351336  0.06425697    -0.11400
C737        C  0.14900357  0.69835529  0.07778601    -0.10600
C738        C  0.14778617  0.72481347  0.07656959    -0.01500
C739        C  0.12801347  0.73613801  0.06013318    -0.11700
C740        C  0.10925052  0.72132335  0.04629053    -0.10100
H741        H  0.13084188  0.66325206  0.06704823     0.07800
H742        H  0.16416529  0.68912186  0.09016590     0.11500
H743        H  0.12685638  0.75646820  0.05835258     0.11200
H744        H  0.09408140  0.73067163  0.03407666     0.07800
C745        C  0.18554500  0.12240570  0.19384101    -0.11300
C746        C  0.16024225  0.11643177  0.20019833     0.05800
C747        C  0.14171803  0.13451803  0.19354029    -0.10100
C748        C  0.14828251  0.15796269  0.18082074    -0.11800
C749        C  0.17355351  0.16398336  0.17465323    -0.01500
C750        C  0.19213988  0.14598710  0.18135192    -0.10600
C751        C  0.15293253  0.09144512  0.21346693     0.05800
H752        H  0.12202915  0.13037574  0.19772272     0.07700
H753        H  0.13354852  0.17138918  0.17579882     0.11200
H754        H  0.21178767  0.15008923  0.17677478     0.11500
H755        H  0.20025439  0.10895353  0.19888199     0.07800
C756        C  0.16352656  0.06898217  0.20201194    -0.11400
C757        C  0.15498166  0.04546029  0.21283931    -0.10600
C758        C  0.13570576  0.04389484  0.23543879    -0.01500
C759        C  0.12595935  0.06644216  0.24780575    -0.11700
C760        C  0.13442434  0.08985681  0.23693650    -0.10100
H761        H  0.17776830  0.06957261  0.18384208     0.07800
H762        H  0.16296417  0.02852097  0.20280757     0.11500
H763        H  0.11132606  0.06607027  0.26549066     0.11200
H764        H  0.12625391  0.10680520  0.24670480     0.07800
C765        C  0.13095992  0.90449933  0.22648658    -0.11300
C766        C  0.14737935  0.90418523  0.20065787     0.05800
C767        C  0.15605290  0.92727224  0.18841938    -0.10100
C768        C  0.14855641  0.95017850  0.20180604    -0.11800
C769        C  0.13193342  0.95050273  0.22746585    -0.01500
C770        C  0.12321123  0.92736233  0.23960412    -0.10600
C771        C  0.15560299  0.87984694  0.18673071     0.05800
H772        H  0.16888700  0.92758843  0.16868996     0.07700
H773        H  0.15548288  0.96762406  0.19174632     0.11200
H774        H  0.11034127  0.92687773  0.25930379     0.11500
H775        H  0.12380688  0.88703200  0.23625710     0.07800
C776        C  0.16335217  0.85988881  0.20606815    -0.11400
C777        C  0.17168060  0.83719003  0.19299957    -0.10600
C778        C  0.17218632  0.83382585  0.16031074    -0.01500
C779        C  0.16412577  0.85364143  0.14096488    -0.11700
C780        C  0.15601275  0.87644657  0.15403789    -0.10100
H781        H  0.16345293  0.86203395  0.23131372     0.07800
H782        H  0.17789139  0.82230453  0.20851315     0.11500
H783        H  0.16434384  0.85161263  0.11571792     0.11200
H784        H  0.14990922  0.89140714  0.13857957     0.07800
C785        C  0.82952260  0.07500872  0.21932356    -0.11300
C786        C  0.84621645  0.09431419  0.20982103     0.05800
C787        C  0.87223988  0.08990261  0.21204310    -0.10100
C788        C  0.88130980  0.06721866  0.22391630    -0.11800
C789        C  0.86468568  0.04798061  0.23316827    -0.01500
C790        C  0.83868434  0.05196183  0.23055811    -0.10600
C791        C  0.83686068  0.11883530  0.19723408     0.05800
H792        H  0.88577603  0.10379934  0.20410964     0.07700
H793        H  0.90147562  0.06451908  0.22516806     0.11200
H794        H  0.82547878  0.03743143  0.23767023     0.11500
H795        H  0.80937057  0.07773976  0.21842680     0.07800
C796        C  0.81446624  0.12009835  0.17969351    -0.11400
C797        C  0.80653522  0.14297623  0.16672194    -0.10600
C798        C  0.82109216  0.16494040  0.17040689    -0.01500
C799        C  0.84319518  0.16387490  0.18817891    -0.11700
C800        C  0.85079696  0.14121636  0.20180957    -0.10100
H801        H  0.80335789  0.10331992  0.17520911     0.07800
H802        H  0.78941638  0.14333951  0.15298957     0.11500
H803        H  0.85454058  0.18065796  0.19173044     0.11200
H804        H  0.86767988  0.14132824  0.21593916     0.07800
C805        C  0.86467369  0.90923712  0.23666221    -0.11300
C806        C  0.84474572  0.90823942  0.21509874     0.05800
C807        C  0.83299276  0.93086761  0.20631200    -0.10100
C808        C  0.84161743  0.95401719  0.21798469    -0.11800
C809        C  0.86225370  0.95502095  0.23856194    -0.01500
C810        C  0.87334633  0.93229926  0.24818230    -0.10600
C811        C  0.83696683  0.88372768  0.20115475     0.05800
H812        H  0.81770943  0.93078572  0.18955894     0.07700
H813        H  0.83265937  0.97115459  0.21002323     0.11200
H814        H  0.88912596  0.93229177  0.26420288     0.11500
H815        H  0.87375322  0.89214029  0.24451792     0.07800
C816        C  0.85518243  0.86559403  0.19339089    -0.11400
C817        C  0.84814428  0.84260385  0.18005318    -0.10600
C818        C  0.82274777  0.83721486  0.17415049    -0.01500
C819        C  0.80444062  0.85515156  0.18202380    -0.11700
C820        C  0.81148868  0.87825046  0.19528861    -0.10100
H821        H  0.87499805  0.86934640  0.19706064     0.07800
H822        H  0.86261591  0.82909806  0.17416416     0.11500
H823        H  0.78469972  0.85143461  0.17760779     0.11200
H824        H  0.79698448  0.89168958  0.20126542     0.07800
C825        C  0.02606885  0.97512682  0.29097039    -0.11300
C826        C  0.01425819  0.99820442  0.29780055     0.05800
C827        C  0.02957301  0.01979097  0.30139582    -0.10100
C828        C  0.05529747  0.01893702  0.29459069    -0.11800
C829        C  0.06641047  0.99638243  0.28447386    -0.01500
C830        C  0.05182702  0.97421584  0.28464715    -0.10600
C831        C  0.98620650  0.00032967  0.29640416     0.05800
H832        H  0.02158211  0.03771951  0.30812390     0.07700
H833        H  0.06614267  0.03625580  0.29561413     0.11200
H834        H  0.05982950  0.95637882  0.27747172     0.11500
H835        H  0.01530415  0.95798046  0.28786856     0.07800
C836        C  0.97507483  0.02268874  0.28539849    -0.11400
C837        C  0.94951093  0.02352465  0.27821645    -0.10600
C838        C  0.93433481  0.00193787  0.28128190    -0.01500
C839        C  0.94488952  0.98002447  0.29412791    -0.11700
C840        C  0.97045994  0.97930359  0.30187651    -0.10100
H841        H  0.98624821  0.03925349  0.28020317     0.07800
H842        H  0.94202015  0.04076874  0.26845619     0.11500
H843        H  0.93356998  0.96318844  0.29735719     0.11200
H844        H  0.97793693  0.96194527  0.31126140     0.07800
C845        C  0.02147425  0.47330250  0.01103171    -0.11300
C846        C  0.99960345  0.48655448  0.00282423     0.05800
C847        C  0.97787015  0.47254975  0.49502489    -0.10100
C848        C  0.97777125  0.44613362  0.49665235    -0.11800
C849        C  0.99949617  0.43304423  0.00570450    -0.01500
C850        C  0.02146503  0.44697074  0.01223201    -0.10600
C851        C  0.99924545  0.51475666  0.00391186     0.05800
H852        H  0.96085624  0.48198420  0.48771069     0.07700
H853        H  0.96065928  0.43597484  0.49093073     0.11200
H854        H  0.03857594  0.43756832  0.01930448     0.11500
H855        H  0.03848848  0.48324631  0.01762053     0.07800
C856        C  0.97745787  0.52759588  0.01351601    -0.11400
C857        C  0.97741007  0.55386502  0.01638714    -0.10600
C858        C  0.99922755  0.56811090  0.01009772    -0.01500
C859        C  0.02093546  0.55541656  0.49999688    -0.11700
C860        C  0.02090807  0.52910649  0.49677711    -0.10100
H861        H  0.96053505  0.51733235  0.01976757     0.07800
H862        H  0.96034470  0.56295280  0.02430054     0.11500
H863        H  0.03796152  0.56581438  0.49448281     0.11200
H864        H  0.03787929  0.52004517  0.48854234     0.07800
C865        C  0.87281173  0.31723334  0.07465013    -0.11300
C866        C  0.89014995  0.30701448  0.05323327     0.05800
C867        C  0.88760747  0.28140817  0.04485195    -0.10100
C868        C  0.86901751  0.26619856  0.05858271    -0.11800
C869        C  0.85221325  0.27633053  0.08055521    -0.01500
C870        C  0.85396302  0.30209505  0.08798215    -0.10600
C871        C  0.91185666  0.32237454  0.04150109     0.05800
H872        H  0.90023356  0.27298321  0.02793189     0.07700
H873        H  0.86786849  0.24646883  0.05214612     0.11200
H874        H  0.84126552  0.31036979  0.10495706     0.11500
H875        H  0.87434234  0.33670874  0.08202016     0.07800
C876        C  0.90959955  0.34835863  0.03506956    -0.11400
C877        C  0.93070662  0.36277745  0.02614551    -0.10600
C878        C  0.95450739  0.35150825  0.02347250    -0.01500
C879        C  0.95647019  0.32541877  0.02911424    -0.11700
C880        C  0.93557127  0.31115991  0.03809597    -0.10100
H881        H  0.89155985  0.35758611  0.03712408     0.07800
H882        H  0.92847336  0.38278384  0.02197659     0.11500
H883        H  0.97439920  0.31591631  0.02741156     0.11200
H884        H  0.93827347  0.29139695  0.04340978     0.07800
C885        C  0.09875263  0.28636325  0.07270440    -0.11300
C886        C  0.10625783  0.30874778  0.05758118     0.05800
C887        C  0.13182889  0.31563905  0.05809047    -0.10100
C888        C  0.14946708  0.30029589  0.07319451    -0.11800
C889        C  0.14182022  0.27791258  0.08820933    -0.01500
C890        C  0.11630026  0.27112630  0.08776724    -0.10600
C891        C  0.08707897  0.32477779  0.04206082     0.05800
H892        H  0.13819201  0.33269549  0.04658185     0.07700
H893        H  0.16908351  0.30598946  0.07321768     0.11200
H894        H  0.10984145  0.25409675  0.09925757     0.11500
H895        H  0.07912045  0.28077579  0.07338480     0.07800
C896        C  0.06709840  0.31338154  0.02575839    -0.11400
C897        C  0.04678065  0.32765419  0.01551755    -0.10600
C898        C  0.04603317  0.35373737  0.02097496    -0.01500
C899        C  0.06692670  0.36559478  0.03488609    -0.11700
C900        C  0.08728759  0.35118734  0.04546918    -0.10100
H901        H  0.06673462  0.29321422  0.02190533     0.07800
H902        H  0.03112133  0.31806702  0.00436844     0.11500
H903        H  0.06681127  0.38567952  0.53940522     0.11200
H904        H  0.10244184  0.36052903  0.05791787     0.07800
C905        C  0.15409795  0.91133531  0.42038009    -0.11300
C906        C  0.18023033  0.91437095  0.42469080     0.05800
C907        C  0.19096025  0.93825081  0.41961977    -0.10100
C908        C  0.17607616  0.95861938  0.41104359    -0.11800
C909        C  0.14986917  0.95590809  0.40759194    -0.01500
C910        C  0.13904876  0.93191875  0.41189619    -0.10600
C911        C  0.19635588  0.89330742  0.43582108     0.05800
H912        H  0.21086279  0.94151092  0.42329330     0.07700
H913        H  0.18521233  0.97674316  0.40792129     0.11200
H914        H  0.11895365  0.92916602  0.40939580     0.11500
H915        H  0.14525845  0.89309954  0.42375667     0.07800
C916        C  0.18751113  0.87626358  0.45860011    -0.11400
C917        C  0.20349642  0.85798488  0.47112227    -0.10600
C918        C  0.22871427  0.85652323  0.46136843    -0.01500
C919        C  0.23744102  0.87308541  0.43813021    -0.11700
C920        C  0.22139664  0.89113862  0.42531477    -0.10100
H921        H  0.16848620  0.87756772  0.46755124     0.07800
H922        H  0.19628410  0.84538333  0.48901355     0.11500
H923        H  0.25670318  0.87212027  0.42989534     0.11200
H924        H  0.22870718  0.90356870  0.40732192     0.07800
C925        C  0.57113564  0.16826462  0.08714641    -0.11300
C926        C  0.59111716  0.15179752  0.08018481     0.05800
C927        C  0.58715761  0.12570408  0.08372158    -0.10100
C928        C  0.56414043  0.11639101  0.09444667    -0.11800
C929        C  0.54425184  0.13283770  0.10128475    -0.01500
C930        C  0.54784693  0.15884714  0.09723277    -0.10600
C931        C  0.61581107  0.16154480  0.06866944     0.05800
H932        H  0.60168021  0.11231263  0.07773952     0.07700
H933        H  0.56179498  0.09617980  0.09690689     0.11200
H934        H  0.53284849  0.17192365  0.10251562     0.11500
H935        H  0.57351214  0.18847823  0.08522623     0.07800
C936        C  0.61714784  0.18329012  0.04978855    -0.11400
C937        C  0.64019283  0.19160010  0.03769714    -0.10600
C938        C  0.66227013  0.17805290  0.04363479    -0.01500
C939        C  0.66115802  0.15663337  0.06281147    -0.11700
C940        C  0.63825650  0.14866683  0.07555330    -0.10100
H941        H  0.60034305  0.19351694  0.04349858     0.07800
H942        H  0.64061795  0.20816144  0.02281566     0.11500
H943        H  0.67802459  0.14608949  0.06803071     0.11200
H944        H  0.63821381  0.13231507  0.09074463     0.07800
C945        C  0.57012591  0.82814694  0.09115171    -0.11300
C946        C  0.59261553  0.84177168  0.09536876     0.05800
C947        C  0.59261578  0.86301832  0.11493181    -0.10100
C948        C  0.57043248  0.87108526  0.12909233    -0.11800
C949        C  0.54760006  0.85823651  0.12378838    -0.01500
C950        C  0.54777393  0.83634748  0.10517292    -0.10600
C951        C  0.61598149  0.83439654  0.07889501     0.05800
H952        H  0.60980020  0.87356602  0.11904879     0.07700
H953        H  0.57112530  0.88788940  0.14348886     0.11200
H954        H  0.53053810  0.82602032  0.10059700     0.11500
H955        H  0.56966438  0.81169384  0.07612263     0.07800
C956        C  0.62369873  0.80912783  0.07821937    -0.11400
C957        C  0.64624148  0.80246357  0.06352517    -0.10600
C958        C  0.66132013  0.82092534  0.04903267    -0.01500
C959        C  0.65336320  0.84612013  0.04921902    -0.11700
C960        C  0.63094957  0.85279954  0.06408954    -0.10100
H961        H  0.61255986  0.79463634  0.08961388     0.07800
H962        H  0.65194672  0.78288370  0.06366168     0.11500
H963        H  0.66456549  0.86070303  0.03810511     0.11200
H964        H  0.62523498  0.87237881  0.06391498     0.07800
C965        C  0.40969877  0.86584013  0.11739405    -0.11300
C966        C  0.40870785  0.84460471  0.09777709     0.05800
C967        C  0.43069741  0.83040805  0.09324749    -0.10100
C968        C  0.45343294  0.83794439  0.10692645    -0.11800
C969        C  0.45466724  0.85982544  0.12548217    -0.01500
C970        C  0.43236600  0.87330776  0.13119807    -0.10600
C971        C  0.38505301  0.83772375  0.08127447     0.05800
H972        H  0.43053455  0.81401896  0.07814645     0.07700
H973        H  0.47020902  0.82709538  0.10200877     0.11200
H974        H  0.43251071  0.89012242  0.14555760     0.11500
H975        H  0.39295179  0.87687181  0.12178702     0.07800
C976        C  0.37745630  0.81239423  0.07900080    -0.11400
C977        C  0.35562947  0.80580888  0.06265005    -0.10600
C978        C  0.34095445  0.82438028  0.04808921    -0.01500
C979        C  0.34838727  0.84975899  0.05051603    -0.11700
C980        C  0.37021054  0.85636903  0.06699327    -0.10100
H981        H  0.38833111  0.79766924  0.09005299     0.07800
H982        H  0.35025865  0.78610652  0.06136769     0.11500
H983        H  0.33741754  0.86446153  0.03956887     0.11200
H984        H  0.37575092  0.87603631  0.06805034     0.07800
C985        C  0.48102354  0.96967965  0.17860475    -0.11300
C986        C  0.50191775  0.98434766  0.16955117     0.05800
C987        C  0.52419437  0.97208041  0.16064542    -0.10100
C988        C  0.52498993  0.94584843  0.15875585    -0.11800
C989        C  0.50340904  0.93133009  0.16524894    -0.01500
C990        C  0.48171712  0.94343077  0.17631679    -0.10600
C991        C  0.49977362  0.01211055  0.16622214     0.05800
H992        H  0.54059569  0.98272730  0.15329525     0.07700
H993        H  0.54203707  0.93711652  0.15016237     0.11200
H994        H  0.46494543  0.93268466  0.18200934     0.11500
H995        H  0.46384487  0.97853503  0.18652623     0.07800
C996        C  0.47750489  0.02265608  0.15438819    -0.11400
C997        C  0.47643140  0.04818324  0.14674853    -0.10600
C998        C  0.49770573  0.06365493  0.15035921    -0.01500
C999        C  0.51954336  0.05353149  0.16381060    -0.11700
C1000       C  0.52053052  0.02801990  0.17181875    -0.10100
H1001       H  0.46128112  0.01094861  0.14932663     0.07800
H1002       H  0.45938153  0.05544086  0.13630041     0.11500
H1003       H  0.53610189  0.06518067  0.16731035     0.11200
H1004       H  0.53775235  0.02061927  0.18164310     0.07800
C1005       C  0.14885313  0.08851317  0.42844707    -0.11300
C1006       C  0.17476672  0.08941246  0.42173036     0.05800
C1007       C  0.18554029  0.06993572  0.40405542    -0.10100
C1008       C  0.17121153  0.04907800  0.39523525    -0.11800
C1009       C  0.14571981  0.04732880  0.40363224    -0.01500
C1010       C  0.13438369  0.06758557  0.41937752    -0.10600
C1011       C  0.19115224  0.10915977  0.43548095     0.05800
H1012       H  0.20535479  0.07041085  0.39805828     0.07700
H1013       H  0.18032687  0.03381174  0.38283796     0.11200
H1014       H  0.11478984  0.06654828  0.42634954     0.11500
H1015       H  0.14014268  0.10326114  0.44219186     0.07800
C1016       C  0.18424182  0.13467152  0.43503204    -0.11400
C1017       C  0.19978316  0.15290449  0.44888207    -0.10600
C1018       C  0.22229994  0.14583533  0.46368282    -0.01500
C1019       C  0.22920746  0.12036556  0.46395581    -0.11700
C1020       C  0.21382059  0.10223517  0.44997728    -0.10100
H1021       H  0.16690443  0.14047376  0.42390568     0.07800
H1022       H  0.19402087  0.17245774  0.44840924     0.11500
H1023       H  0.24638122  0.11438700  0.47532406     0.11200
H1024       H  0.21939859  0.08264387  0.45110754     0.07800
C1025       C  0.42672358  0.16609535  0.07876970    -0.11300
C1026       C  0.40427203  0.15498351  0.08964829     0.05800
C1027       C  0.40565576  0.13535585  0.11162612    -0.10100
C1028       C  0.42891348  0.12620832  0.12144466    -0.11800
C1029       C  0.45143457  0.13640250  0.10944778    -0.01500
C1030       C  0.45009950  0.15687262  0.08855243    -0.10600
C1031       C  0.37946891  0.16283335  0.07709559     0.05800
H1032       H  0.38866326  0.12678509  0.12089221     0.07700
H1033       H  0.42917838  0.11067431  0.13790024     0.11200
H1034       H  0.46707080  0.16519882  0.07889209     0.11500
H1035       H  0.42620457  0.18122770  0.06175449     0.07800
C1036       C  0.37352146  0.18843986  0.07340103    -0.11400
C1037       C  0.35007133  0.19555386  0.06147778    -0.10600
C1038       C  0.33226855  0.17719327  0.05265656    -0.01500
C1039       C  0.33826589  0.15161407  0.05621726    -0.11700
C1040       C  0.36156422  0.14451688  0.06842109    -0.10100
H1041       H  0.38691267  0.20293984  0.08002163     0.07800
H1042       H  0.34597878  0.21542002  0.05881885     0.11500
H1043       H  0.32497843  0.13706813  0.04944650     0.11200
H1044       H  0.36576559  0.12463442  0.07057736     0.07800
C1045       C  0.97185804  0.97677646  0.38061222    -0.11300
C1046       C  0.98614500  0.99850102  0.38732393     0.05800
C1047       C  0.97329449  0.02076612  0.39537526    -0.10100
C1048       C  0.94699572  0.02119113  0.39710849    -0.11800
C1049       C  0.93280893  0.99930059  0.39115891    -0.01500
C1050       C  0.94557480  0.97716281  0.38253372    -0.10600
C1051       C  0.01426179  0.99785398  0.38686725     0.05800
H1052       H  0.98354541  0.03778519  0.40129724     0.07700
H1053       H  0.93783513  0.03853578  0.40394936     0.11200
H1054       H  0.93526048  0.96000259  0.37736133     0.11500
H1055       H  0.98094975  0.95942943  0.37367299     0.07800
C1056       C  0.02743166  0.97616133  0.39636026    -0.11400
C1057       C  0.05377283  0.97617290  0.39771846    -0.10600
C1058       C  0.06758743  0.99793754  0.38990170    -0.01500
C1059       C  0.05450601  0.01933179  0.37952683    -0.11700
C1060       C  0.02824445  0.01927880  0.37801162    -0.10100
H1061       H  0.01741250  0.95939488  0.40381081     0.07800
H1062       H  0.06325498  0.95938891  0.40589171     0.11500
H1063       H  0.06455925  0.03628723  0.37276507     0.11200
H1064       H  0.01891036  0.03612137  0.36980498     0.07800
C1065       C  0.81204458  0.06182609  0.42753162    -0.11300
C1066       C  0.82215545  0.08630368  0.42618481     0.05800
C1067       C  0.84743852  0.08925173  0.41659325    -0.10100
C1068       C  0.86210885  0.06816014  0.40867480    -0.11800
C1069       C  0.85169947  0.04376068  0.40995091    -0.01500
C1070       C  0.82641095  0.04103278  0.41924041    -0.10600
C1071       C  0.80619393  0.10820622  0.43550354     0.05800
H1072       H  0.85586707  0.10782061  0.41499460     0.07700
H1073       H  0.88150781  0.07094134  0.40164787     0.11200
H1074       H  0.81761857  0.02262211  0.42091089     0.11500
H1075       H  0.79304314  0.05847803  0.43573404     0.07800
C1076       C  0.77996882  0.10750755  0.43055339    -0.11400
C1077       C  0.76446575  0.12654200  0.44213446    -0.10600
C1078       C  0.77481189  0.14718835  0.45809883    -0.01500
C1079       C  0.80103320  0.14870990  0.46182813    -0.11700
C1080       C  0.81656668  0.12930508  0.45090966    -0.10100
H1081       H  0.77124517  0.09208203  0.41792799     0.07800
H1082       H  0.74433156  0.12506604  0.43868778     0.11500
H1083       H  0.80943954  0.16442788  0.47428745     0.11200
H1084       H  0.83654292  0.13046408  0.45553790     0.07800
C1085       C  0.81208556  0.93165292  0.40662561    -0.11300
C1086       C  0.82232290  0.91148294  0.42358654     0.05800
C1087       C  0.84841702  0.91130260  0.42936984    -0.10100
C1088       C  0.86361349  0.93162184  0.41993601    -0.11800
C1089       C  0.85287405  0.95248559  0.40488107    -0.01500
C1090       C  0.82712885  0.95195470  0.39759119    -0.10600
C1091       C  0.80545063  0.89167118  0.43667841     0.05800
H1092       H  0.85687434  0.89610794  0.44253458     0.07700
H1093       H  0.88337408  0.93170087  0.42609202     0.11200
H1094       H  0.81840982  0.96770543  0.38572592     0.11500
H1095       H  0.79224015  0.93207072  0.40097298     0.07800
C1096       C  0.78168300  0.89822950  0.44870326    -0.11400
C1097       C  0.76582787  0.87994956  0.46163752    -0.10600
C1098       C  0.77341872  0.85470619  0.46305061    -0.01500
C1099       C  0.79705306  0.84799647  0.45092225    -0.11700
C1100       C  0.81294167  0.86631133  0.43787342    -0.10100
H1101       H  0.77549761  0.91765761  0.44878192     0.07800
H1102       H  0.74777217  0.88565544  0.47096845     0.11500
H1103       H  0.80335743  0.82861134  0.45176055     0.11200
H1104       H  0.83099382  0.86060614  0.42856822     0.07800
C1105       C  0.90498921  0.99915949  0.89507453     0.79700
N1106       N  0.89199699  0.02118985  0.89876337    -0.78600
C1107       C  0.86659139  0.02069987  0.90317689     0.82200
N1108       N  0.85455579  0.99818039  0.90383673    -0.78500
C1109       C  0.86705851  0.97623379  0.90068078     0.82300
N1110       N  0.89237756  0.97671853  0.89655907    -0.80300
In1111     In  0.26528828  0.19841163  0.51107649     1.36900
C1112       C  0.23806536  0.16469796  0.97989100     0.77100
O1113       O  0.23578559  0.19147497  0.54769638    -0.61400
O1114       O  0.25296426  0.22757474  0.54657863    -0.52300
C1115       C  0.30793297  0.18464587  0.53877213     0.69700
O1116       O  0.29296844  0.16900357  0.52636796    -0.47100
C1117       C  0.27897394  0.22708357  0.96284206     0.74400
O1118       O  0.25735570  0.15884858  0.99548761    -0.59000
O1119       O  0.25845231  0.23020522  0.97708902    -0.49100
O1120       O  0.23304476  0.18790371  0.97985537    -0.55400
C1121       C  0.23715974  0.21314685  0.55946704     0.84600
O1122       O  0.30066167  0.20724796  0.53771010    -0.57300
O1123       O  0.29258110  0.20981712  0.97361273    -0.60600
C1124       C  0.52371244  0.86921237  0.63528988     0.79700
N1125       N  0.50113742  0.85818612  0.62875717    -0.78600
C1126       C  0.47924156  0.87002513  0.63625739     0.82200
N1127       N  0.48020961  0.89318659  0.64984641    -0.78500
C1128       C  0.50258044  0.90444993  0.65624456     0.82300
N1129       N  0.52414727  0.89236705  0.64877922    -0.80300
C1130       C  0.47582984  0.12439971  0.61712707     0.79700
N1131       N  0.47595823  0.10162198  0.63172504    -0.78600
C1132       C  0.49784893  0.08939065  0.63725525     0.82200
N1133       N  0.51978851  0.09990736  0.62759352    -0.78500
C1134       C  0.52009689  0.12257147  0.61286200     0.82300
N1135       N  0.49804381  0.13481533  0.60761285    -0.80300
In1136     In  0.27597346  0.80348051  0.50133435     1.36900
C1137       C  0.24577827  0.83785511  0.97554712     0.77100
O1138       O  0.30310199  0.78956589  0.96502488    -0.61400
O1139       O  0.26674255  0.77318184  0.96527140    -0.52300
C1140       C  0.31793048  0.81712719  0.53077987     0.69700
O1141       O  0.30370333  0.83292976  0.51755500    -0.47100
C1142       C  0.25184057  0.78640386  0.55154024     0.74400
O1143       O  0.26932271  0.83825641  0.97189426    -0.59000
O1144       O  0.25648024  0.77236420  0.52828788    -0.49100
O1145       O  0.23791011  0.82011209  0.99248896    -0.55400
C1146       C  0.28807468  0.77427185  0.95242968     0.84600
O1147       O  0.31080682  0.79445819  0.52828458    -0.57300
O1148       O  0.26024758  0.80856619  0.54937621    -0.60600
In1149     In  0.72874820  0.80173663  0.00734217     1.36900
C1150       C  0.68537316  0.81403170  0.53408327     0.77100
O1151       O  0.70389285  0.79009065  0.96752246    -0.61400
O1152       O  0.73693566  0.76878916  0.97538760    -0.52300
C1153       C  0.75711320  0.83568949  0.97815690     0.69700
O1154       O  0.73629474  0.84110821  0.99070252    -0.47100
C1155       C  0.75579389  0.78917336  0.55728496     0.74400
O1156       O  0.69892989  0.82977778  0.51956147    -0.59000
O1157       O  0.74205547  0.77344062  0.54313683    -0.49100
O1158       O  0.69409956  0.79195393  0.53489055    -0.55400
C1159       C  0.71761649  0.77212641  0.95887811     0.84600
O1160       O  0.76310980  0.81277583  0.98013832    -0.57300
O1161       O  0.75521729  0.81118218  0.54638766    -0.60600
In1162     In  0.72917578  0.19938112  0.00185601     1.36900
C1163       C  0.68624803  0.18577750  0.52916107     0.77100
O1164       O  0.75465129  0.19154370  0.54183474    -0.61400
O1165       O  0.74115950  0.22896684  0.53735758    -0.52300
C1166       C  0.75819929  0.16625467  0.97233453     0.69700
O1167       O  0.73548259  0.16176931  0.97912233    -0.47100
C1168       C  0.71728883  0.22845883  0.95363590     0.74400
O1169       O  0.70424653  0.17072009  0.52509951    -0.59000
O1170       O  0.73519957  0.23400811  0.97182980    -0.49100
O1171       O  0.69031763  0.20786725  0.51948271    -0.55400
C1172       C  0.75462299  0.21364256  0.55241349     0.84600
O1173       O  0.76573655  0.18806093  0.97960052    -0.57300
O1174       O  0.70597539  0.20817976  0.95995451    -0.60600
C1175       C  0.09532819  0.99894078  0.89387510     0.79700
N1176       N  0.10719533  0.02175261  0.89547316    -0.78600
C1177       C  0.13246335  0.02306556  0.89961431     0.82200
N1178       N  0.14572960  0.00153230  0.90256165    -0.78500
C1179       C  0.13437622  0.97864491  0.90163425     0.82300
N1180       N  0.10899601  0.97736718  0.89738591    -0.80300
C1181       C  0.99942858  0.40514076  0.50928404     0.79700
N1182       N  0.02174630  0.39273668  0.51159590    -0.78600
C1183       C  0.02222521  0.36740998  0.51587950     0.82200
N1184       N  0.00025316  0.35462075  0.51857255    -0.78500
C1185       C  0.97776938  0.36647414  0.51705007     0.82300
N1186       N  0.97738420  0.39191986  0.51231222    -0.80300
C1187       C  0.87359005  0.97948058  0.74799819     0.79700
N1188       N  0.89630787  0.97980289  0.76264589    -0.78600
C1189       C  0.90840737  0.00187821  0.76854803     0.82200
N1190       N  0.89767127  0.02379253  0.75931166    -0.78500
C1191       C  0.87489349  0.02392081  0.74497888     0.82300
N1192       N  0.86291428  0.00168168  0.73922768    -0.80300
C1193       C  0.12458079  0.01916990  0.74479132     0.79700
N1194       N  0.13406999  0.99706283  0.73363601    -0.78600
C1195       C  0.12271320  0.97467285  0.74074756     0.82200
N1196       N  0.10153950  0.97466877  0.75858408    -0.78500
C1197       C  0.09167684  0.99648691  0.76961868     0.82300
N1198       N  0.10331236  0.01863184  0.76258038    -0.80300
In1199     In  0.79999764  0.23151218  0.62737654     1.36900
C1200       C  0.81355772  0.18878438  0.65533445     0.77100
O1201       O  0.80818324  0.25509893  0.66925939    -0.61400
O1202       O  0.77004926  0.24463217  0.66161971    -0.52300
C1203       C  0.83343302  0.26008288  0.59649689     0.69700
O1204       O  0.83548473  0.23643084  0.59859886    -0.47100
C1205       C  0.76997867  0.22048093  0.57952608     0.74400
O1206       O  0.82911748  0.20595684  0.64830042    -0.59000
O1207       O  0.76745792  0.24060326  0.59497396    -0.49100
O1208       O  0.79107217  0.19357472  0.64821709    -0.55400
C1209       C  0.78571997  0.25646416  0.67838490     0.84600
O1210       O  0.81420026  0.26887973  0.60976567    -0.57300
O1211       O  0.78723946  0.20625453  0.58892142    -0.60600
In1212     In  0.19306034  0.23295349  0.63499624     1.36900
C1213       C  0.16016132  0.26178101  0.60468263     0.77100
O1214       O  0.18617076  0.26025209  0.67436502    -0.61400
O1215       O  0.22268063  0.24485240  0.67016771    -0.52300
C1216       C  0.18042351  0.18876607  0.66093992     0.69700
O1217       O  0.16432409  0.20447771  0.65154504    -0.47100
C1218       C  0.22154622  0.22061638  0.58612852     0.74400
O1219       O  0.15383073  0.24206233  0.61937864    -0.59000
O1220       O  0.22634657  0.23951380  0.60307895    -0.49100
O1221       O  0.18339782  0.26664298  0.60541228    -0.55400
C1222       C  0.20820503  0.25936475  0.68493535     0.84600
O1223       O  0.20292014  0.19588581  0.65740896    -0.57300
O1224       O  0.20228832  0.20825392  0.59406741    -0.60600
In1225     In  0.20184891  0.76804987  0.62202445     1.36900
C1226       C  0.16682701  0.74043053  0.59286692     0.77100
O1227       O  0.23178006  0.79294203  0.60089624    -0.61400
O1228       O  0.22464862  0.75789789  0.57900633    -0.52300
C1229       C  0.18187124  0.81008010  0.64656467     0.69700
O1230       O  0.18203662  0.80559210  0.61751894    -0.47100
C1231       C  0.21856626  0.74218186  0.67112112     0.74400
O1232       O  0.16453247  0.76387085  0.59717757    -0.59000
O1233       O  0.23266598  0.75723888  0.65620179    -0.49100
O1234       O  0.18676465  0.73128526  0.60385606    -0.55400
C1235       C  0.23620749  0.77858136  0.57811441     0.84600
O1236       O  0.19113473  0.79272193  0.66296605    -0.57300
O1237       O  0.19645581  0.74041829  0.66077112    -0.60600
In1238     In  0.80264305  0.77068635  0.63056951     1.36900
C1239       C  0.83666648  0.74353051  0.59993162     0.77100
O1240       O  0.81170845  0.74274523  0.66805188    -0.61400
O1241       O  0.77499694  0.75822457  0.66765533    -0.52300
C1242       C  0.81556070  0.81326570  0.65902855     0.69700
O1243       O  0.83141094  0.79888454  0.64624950    -0.47100
C1244       C  0.77192094  0.78251972  0.58371035     0.74400
O1245       O  0.84146333  0.76518819  0.61079346    -0.59000
O1246       O  0.76920802  0.76260505  0.59946693    -0.49100
O1247       O  0.81424800  0.73627036  0.60391370    -0.55400
C1248       C  0.79034623  0.74354524  0.68063408     0.84600
O1249       O  0.79307968  0.80567658  0.65744146    -0.57300
O1250       O  0.79002983  0.79630618  0.59205144    -0.60600
C1251       C  0.99919067  0.59596367  0.51444680     0.79700
N1252       N  0.02129386  0.60925613  0.51602874    -0.78600
C1253       C  0.02098830  0.63468527  0.52068502     0.82200
N1254       N  0.99859851  0.64649554  0.52328710    -0.78500
C1255       C  0.97659295  0.63374860  0.52195170     0.82300
N1256       N  0.97689118  0.60834854  0.51794938    -0.80300
C1257       C  0.49859579  0.09774930  0.75804898     0.79700
N1258       N  0.47559495  0.10861214  0.76216998    -0.78600
C1259       C  0.47381223  0.13378469  0.76763697     0.82200
N1260       N  0.49505753  0.14783927  0.76953226    -0.78500
C1261       C  0.51809923  0.13744799  0.76617757     0.82300
N1262       N  0.51982131  0.11226792  0.76042468    -0.80300
In1263     In  0.30090631  0.26735041  0.88497736     1.36900
C1264       C  0.33387133  0.23732562  0.85676962     0.77100
O1265       O  0.30905295  0.24329397  0.92672757    -0.61400
O1266       O  0.27109357  0.25377283  0.91870205    -0.52300
C1267       C  0.31415975  0.31070051  0.91186609     0.69700
O1268       O  0.32983414  0.29610801  0.89908759    -0.47100
C1269       C  0.27262801  0.28042269  0.83619458     0.74400
O1270       O  0.33950193  0.25892791  0.86707117    -0.59000
O1271       O  0.26818395  0.26084683  0.85204214    -0.49100
O1272       O  0.31110057  0.23121956  0.86039930    -0.55400
C1273       C  0.28650325  0.24191963  0.93554543     0.84600
O1274       O  0.29168769  0.30291261  0.91110562    -0.57300
O1275       O  0.29124824  0.29313261  0.84533116    -0.60600
C1276       C  0.37241168  0.47806446  0.49825903     0.79700
N1277       N  0.39455199  0.47835087  0.51411540    -0.78600
C1278       C  0.40687216  0.50023789  0.52009980     0.82200
N1279       N  0.39704104  0.52217808  0.50952267    -0.78500
C1280       C  0.37488352  0.52245203  0.49369121     0.82300
N1281       N  0.36253915  0.50030237  0.48802122    -0.80300
C1282       C  0.62555401  0.52401049  0.50437371     0.79700
N1283       N  0.60314163  0.52423005  0.51964712    -0.78600
C1284       C  0.59100128  0.50250002  0.52704872     0.82200
N1285       N  0.60141854  0.48018000  0.51871890    -0.78500
C1286       C  0.62384499  0.47937714  0.50335891     0.82300
N1287       N  0.63582267  0.50143273  0.49606774    -0.80300
In1288     In  0.69417231  0.27114477  0.87847695     1.36900
C1289       C  0.68006331  0.31330808  0.90826133     0.77100
O1290       O  0.68795265  0.24219148  0.91554287    -0.61400
O1291       O  0.72362123  0.26034181  0.91432410    -0.52300
C1292       C  0.66098123  0.24470007  0.84463126     0.69700
O1293       O  0.65777923  0.26770318  0.85121268    -0.47100
C1294       C  0.72530753  0.28168929  0.83142815     0.74400
O1295       O  0.66558659  0.29448058  0.90529520    -0.59000
O1296       O  0.72760277  0.26191244  0.84754585    -0.49100
O1297       O  0.70153455  0.31034565  0.89629887    -0.55400
C1298       C  0.70955442  0.24418428  0.92725989     0.84600
O1299       O  0.68108930  0.23558787  0.85513338    -0.57300
O1300       O  0.70772394  0.29597262  0.83986245    -0.60600
In1301     In  0.69938305  0.73045034  0.88052439     1.36900
C1302       C  0.66743007  0.75971703  0.84982408     0.77100
O1303       O  0.68993054  0.75711017  0.91929674    -0.61400
O1304       O  0.72709844  0.74267889  0.91779626    -0.52300
C1305       C  0.68520387  0.68740627  0.90768793     0.69700
O1306       O  0.66975737  0.70272164  0.89592824    -0.47100
C1307       C  0.72916502  0.71897313  0.83242506     0.74400
O1308       O  0.66190386  0.73754483  0.85828720    -0.59000
O1309       O  0.73382849  0.73734056  0.85029586    -0.49100
O1310       O  0.68942695  0.76670677  0.85685010    -0.55400
C1311       C  0.71145820  0.75675560  0.93144989     0.84600
O1312       O  0.70792422  0.69420709  0.90554596    -0.57300
O1313       O  0.70980666  0.70650227  0.83949953    -0.60600
In1314     In  0.31030375  0.73346600  0.87469641     1.36900
C1315       C  0.34506370  0.76102582  0.84495596     0.77100
O1316       O  0.29928597  0.70899513  0.83427743    -0.61400
O1317       O  0.27796353  0.74218828  0.84137593    -0.52300
C1318       C  0.32195605  0.69066718  0.90436909     0.69700
O1319       O  0.33795518  0.70781364  0.89897403    -0.47100
C1320       C  0.29529440  0.75935112  0.92488611     0.74400
O1321       O  0.34682531  0.73740244  0.84785906    -0.59000
O1322       O  0.27992847  0.74708246  0.90813521    -0.49100
O1323       O  0.32556526  0.77030655  0.85706143    -0.55400
C1324       C  0.28147377  0.72263531  0.82506619     0.84600
O1325       O  0.30009985  0.69557458  0.89479165    -0.57300
O1326       O  0.31780817  0.75829730  0.91588906    -0.60600
C1327       C  0.50824661  0.90736858  0.75838935     0.79700
N1328       N  0.53096574  0.89555657  0.76036134    -0.78600
C1329       C  0.53197119  0.87004637  0.76350563     0.82200
N1330       N  0.51031991  0.85663000  0.76511707    -0.78500
C1331       C  0.48760912  0.86796559  0.76385640     0.82300
N1332       N  0.48663426  0.89345695  0.76060692    -0.80300
C1333       C  0.40899696  0.49684365  0.63925121     0.79700
N1334       N  0.39548781  0.51856449  0.64258483    -0.78600
C1335       C  0.37013877  0.51759964  0.64705590     0.82200
N1336       N  0.35852458  0.49487764  0.64800306    -0.78500
C1337       C  0.37143229  0.47311703  0.64491983     0.82300
N1338       N  0.39682952  0.47408628  0.64085267    -0.80300
C1339       C  0.97674883  0.37794693  0.86765895     0.79700
N1340       N  0.97650268  0.40059493  0.88256837    -0.78600
C1341       C  0.99820692  0.41156209  0.89245025     0.82200
N1342       N  0.02037081  0.39991477  0.88643647    -0.78500
C1343       C  0.02109498  0.37742007  0.87115149     0.82300
N1344       N  0.99910812  0.36641565  0.86186436    -0.80300
C1345       C  0.98401529  0.62884300  0.86734143     0.79700
N1346       N  0.98437278  0.60681223  0.88374204    -0.78600
C1347       C  0.00639077  0.59508548  0.89039763     0.82200
N1348       N  0.02826316  0.60551120  0.88015544    -0.78500
C1349       C  0.02846377  0.62758712  0.86402502     0.82300
N1350       N  0.00623902  0.63920338  0.85753594    -0.80300
In1351     In  0.23081842  0.30328557  0.75991007     1.36900
C1352       C  0.18871989  0.31825504  0.78837946     0.77100
O1353       O  0.20412188  0.29341997  0.72103348    -0.61400
O1354       O  0.23577768  0.26987294  0.72754953    -0.52300
C1355       C  0.26033239  0.33570611  0.72903198     0.69700
O1356       O  0.23992657  0.34210305  0.74192979    -0.47100
C1357       C  0.25752821  0.28816158  0.80923788     0.74400
O1358       O  0.20384206  0.33344656  0.77539047    -0.59000
O1359       O  0.24223142  0.27376133  0.79541528    -0.49100
O1360       O  0.19549012  0.29550692  0.78733767    -0.55400
C1361       C  0.21625020  0.27448231  0.71190156     0.84600
O1362       O  0.26542250  0.31259452  0.73161596    -0.57300
O1363       O  0.25908864  0.30999748  0.79792683    -0.60600
In1364     In  0.76803745  0.30131334  0.75441395     1.36900
C1365       C  0.81072779  0.31494683  0.78228056     0.77100
O1366       O  0.74168235  0.30992098  0.79348998    -0.61400
O1367       O  0.75498462  0.27237324  0.79031269    -0.52300
C1368       C  0.74187744  0.33657916  0.72451275     0.69700
O1369       O  0.76498942  0.33904138  0.73066742    -0.47100
C1370       C  0.77890952  0.27159949  0.70580834     0.74400
O1371       O  0.79421626  0.33058829  0.77394153    -0.59000
O1372       O  0.75819708  0.26987867  0.72011993    -0.49100
O1373       O  0.80510783  0.29219455  0.77700897    -0.55400
C1374       C  0.74129393  0.28801043  0.80460015     0.84600
O1375       O  0.73248683  0.31573400  0.73276098    -0.57300
O1376       O  0.79376262  0.28787770  0.71666961    -0.60600
In1377     In  0.77215928  0.69865787  0.75589378     1.36900
C1378       C  0.81579706  0.68594350  0.78266381     0.77100
O1379       O  0.79706560  0.70951027  0.71581897    -0.61400
O1380       O  0.76501551  0.73219885  0.72488231    -0.52300
C1381       C  0.74415413  0.66535651  0.72429940     0.69700
O1382       O  0.76316015  0.65910672  0.74023493    -0.47100
C1383       C  0.74473661  0.71223136  0.80542765     0.74400
O1384       O  0.80083729  0.66996877  0.77091506    -0.59000
O1385       O  0.76034983  0.72701759  0.79281491    -0.49100
O1386       O  0.80827078  0.70841681  0.78092190    -0.55400
C1387       C  0.78397680  0.72815079  0.70786758     0.84600
O1388       O  0.73968882  0.68868923  0.72434789    -0.57300
O1389       O  0.74319444  0.69090104  0.79276263    -0.60600
In1390     In  0.23900573  0.70012461  0.74834998     1.36900
C1391       C  0.19606680  0.68781687  0.77728373     0.77100
O1392       O  0.26698985  0.69359273  0.78655291    -0.61400
O1393       O  0.25149842  0.73019258  0.78348327    -0.52300
C1394       C  0.26527604  0.66490022  0.71811358     0.69700
O1395       O  0.24312964  0.66121892  0.72790379    -0.47100
C1396       C  0.22660931  0.72758179  0.69846332     0.74400
O1397       O  0.21366114  0.67231630  0.77283358    -0.59000
O1398       O  0.24569721  0.73282754  0.71485978    -0.49100
O1399       O  0.20069809  0.70980795  0.76755047    -0.55400
C1400       C  0.26618360  0.71549733  0.79771943     0.84600
O1401       O  0.27376158  0.68674637  0.72336792    -0.57300
O1402       O  0.21426172  0.70869049  0.70763652    -0.60600
C1403       C  0.59998702  0.50241112  0.63500851     0.79700
N1404       N  0.61342648  0.48095879  0.64034883    -0.78600
C1405       C  0.63877841  0.48210370  0.64444052     0.82200
N1406       N  0.65055147  0.50475489  0.64306493    -0.78500
C1407       C  0.63764087  0.52628027  0.63788901     0.82300
N1408       N  0.61222369  0.52511665  0.63422105    -0.80300
C1409       C  0.69194581  0.57174346  0.64431858    -0.11300
C1410       C  0.68107311  0.59182945  0.66089469     0.05800
C1411       C  0.65477275  0.59204570  0.66498147    -0.10100
C1412       C  0.63999517  0.57157110  0.65497536    -0.11800
C1413       C  0.65133014  0.55053807  0.64089424    -0.01500
C1414       C  0.67727433  0.55133021  0.63453396    -0.10600
C1415       C  0.69744163  0.61110048  0.67616805     0.05800
H1416       H  0.64583084  0.60724744  0.67767791     0.07700
H1417       H  0.62007912  0.57139656  0.66033844     0.11200
H1418       H  0.68648173  0.53550426  0.62337030     0.11500
H1419       H  0.71202383  0.57132382  0.64004082     0.07800
C1420       C  0.71966788  0.60364771  0.69140357    -0.11400
C1421       C  0.73485122  0.62128841  0.70681327    -0.10600
C1422       C  0.72824675  0.64685912  0.70732612    -0.01500
C1423       C  0.70611598  0.65444268  0.69200199    -0.11700
C1424       C  0.69079720  0.63672244  0.67668792    -0.10100
H1425       H  0.72508636  0.58398699  0.69201495     0.07800
H1426       H  0.75169352  0.61486530  0.71852586     0.11500
H1427       H  0.70053138  0.67406648  0.69206691     0.11200
H1428       H  0.67386344  0.64305958  0.66511013     0.07800
C1429       C  0.68920196  0.44261754  0.68242286    -0.11300
C1430       C  0.68237473  0.41800074  0.67371958     0.05800
C1431       C  0.66073718  0.41444330  0.65514882    -0.10100
C1432       C  0.64631336  0.43514761  0.64550077    -0.11800
C1433       C  0.65345656  0.45973760  0.65403063    -0.01500
C1434       C  0.67503959  0.46317195  0.67258527    -0.10600
C1435       C  0.69768660  0.39633384  0.68473322     0.05800
H1436       H  0.65509166  0.39568017  0.64788829     0.07700
H1437       H  0.62981154  0.43198692  0.63115796     0.11200
H1438       H  0.68082169  0.48184726  0.68004609     0.11500
H1439       H  0.70533945  0.44601010  0.69731710     0.07800
C1440       C  0.72409696  0.39820423  0.68591109    -0.11400
C1441       C  0.73849432  0.37864043  0.69837395    -0.10600
C1442       C  0.72681920  0.35667818  0.70972414    -0.01500
C1443       C  0.70049480  0.35450843  0.70796477    -0.11700
C1444       C  0.68606354  0.37413490  0.69561138    -0.10100
H1445       H  0.73366853  0.41492054  0.67730925     0.07800
H1446       H  0.75873746  0.38078594  0.69936279     0.11500
H1447       H  0.69098142  0.33782837  0.71677946     0.11200
H1448       H  0.66579212  0.37224470  0.69543778     0.07800
C1449       C  0.91350405  0.63740472  0.85741711    -0.11300
C1450       C  0.91213707  0.65746755  0.83599868     0.05800
C1451       C  0.93466185  0.66929704  0.82650654    -0.10100
C1452       C  0.95802684  0.66057927  0.83728328    -0.11800
C1453       C  0.95938378  0.63991570  0.85793996    -0.18300
C1454       C  0.93673775  0.62878431  0.86825208    -0.10600
C1455       C  0.88733758  0.66510336  0.82273756     0.05800
H1456       H  0.93426744  0.68472756  0.80989947     0.07700
H1457       H  0.97502886  0.66962641  0.82878996     0.11200
H1458       H  0.93689507  0.61299087  0.88432517     0.11500
H1459       H  0.89652149  0.62817571  0.86564920     0.07800
C1460       C  0.86972359  0.64662049  0.81361507    -0.11400
C1461       C  0.84651663  0.65343067  0.80079449    -0.10600
C1462       C  0.84022181  0.67891168  0.79693009    -0.01500
C1463       C  0.85766086  0.69748010  0.80627802    -0.11700
C1464       C  0.88103969  0.69065124  0.81887568    -0.10100
H1465       H  0.87408190  0.62678230  0.81587552     0.07800
H1466       H  0.83352049  0.63870574  0.79377983     0.11500
H1467       H  0.85332202  0.71730154  0.80358199     0.11200
H1468       H  0.89408970  0.70533354  0.82588837     0.07800
C1469       C  0.12699942  0.68746276  0.80004906    -0.11300
C1470       C  0.12484769  0.66482260  0.81723340     0.05800
C1471       C  0.14689795  0.65067514  0.82225960    -0.10100
C1472       C  0.16995087  0.65825726  0.80944118    -0.11800
C1473       C  0.17186239  0.68058668  0.79203495    -0.01500
C1474       C  0.15027292  0.69537053  0.78792279    -0.10600
C1475       C  0.09983783  0.65559172  0.82919398     0.05800
H1476       H  0.14654259  0.63365545  0.83619993     0.07700
H1477       H  0.18636622  0.64664318  0.81327409     0.11200
H1478       H  0.15121218  0.71265450  0.77443208     0.11500
H1479       H  0.11064027  0.69883032  0.79509052     0.07800
C1480       C  0.08016166  0.67240883  0.83653933    -0.11400
C1481       C  0.05678899  0.66344879  0.84731918    -0.10600
C1482       C  0.05272502  0.63753153  0.85182204    -0.01500
C1483       C  0.07228176  0.62076130  0.84470948    -0.11700
C1484       C  0.09529124  0.62958094  0.83314125    -0.10100
H1485       H  0.08280595  0.69257408  0.83446267     0.07800
H1486       H  0.04209460  0.67681768  0.85280913     0.11500
H1487       H  0.06962734  0.60061423  0.84749005     0.11200
H1488       H  0.10931677  0.61577351  0.82686346     0.07800
C1489       C  0.92469076  0.33220770  0.84484007    -0.11300
C1490       C  0.90657378  0.34868416  0.83221773     0.05800
C1491       C  0.91235969  0.37458867  0.83079413    -0.10100
C1492       C  0.93504884  0.38386067  0.84256628    -0.11800
C1493       C  0.95296715  0.36747439  0.85524170    -0.01500
C1494       C  0.94780215  0.34150089  0.85590379    -0.10600
C1495       C  0.88171357  0.33925107  0.82063871     0.05800
H1496       H  0.89945434  0.38783977  0.82033472     0.07700
H1497       H  0.93878063  0.40394120  0.84128247     0.11200
H1498       H  0.96135254  0.32851765  0.86567975     0.11500
H1499       H  0.92089812  0.31219073  0.84671671     0.07800
C1500       C  0.87925720  0.31529106  0.80666846    -0.11400
C1501       C  0.85600876  0.30706590  0.79495217    -0.10600
C1502       C  0.83485989  0.32278783  0.79641863    -0.01500
C1503       C  0.83714300  0.34653416  0.81054902    -0.11700
C1504       C  0.86015715  0.35452632  0.82288698    -0.10100
H1505       H  0.89539137  0.30308985  0.80404306     0.07800
H1506       H  0.85473855  0.28870951  0.78391343     0.11500
H1507       H  0.82104661  0.35891442  0.81222286     0.11200
H1508       H  0.86094853  0.37274106  0.83427191     0.07800
C1509       C  0.07083362  0.33621571  0.83264018    -0.11300
C1510       C  0.09305709  0.34926765  0.84039834     0.05800
C1511       C  0.09151208  0.37060072  0.85973296    -0.10100
C1512       C  0.06823720  0.37910274  0.87052727    -0.11800
C1513       C  0.04582387  0.36662316  0.86202622    -0.01500
C1514       C  0.04742166  0.34486879  0.84322557    -0.10600
C1515       C  0.11777252  0.34125982  0.82767894     0.05800
H1516       H  0.10836677  0.38080555  0.86638623     0.07700
H1517       H  0.06784644  0.39583513  0.88505902     0.11200
H1518       H  0.03058116  0.33482976  0.83613182     0.11500
H1519       H  0.07152037  0.31976540  0.81761199     0.07800
C1520       C  0.12513065  0.31588077  0.82879813    -0.11400
C1521       C  0.14844115  0.30849102  0.81663143    -0.10600
C1522       C  0.16472519  0.32629323  0.80284117    -0.01500
C1523       C  0.15741335  0.35169202  0.80189649    -0.11700
C1524       C  0.13420849  0.35909913  0.81426042    -0.10100
H1525       H  0.11291362  0.30181759  0.83926922     0.07800
H1526       H  0.15360835  0.28876908  0.81771170     0.11500
H1527       H  0.16949787  0.36579183  0.79127978     0.11200
H1528       H  0.12888919  0.37876209  0.81284970     0.07800
C1529       C  0.02636564  0.52851545  0.90921275    -0.11300
C1530       C  0.00366423  0.51757103  0.91960757     0.05800
C1531       C  0.98309358  0.53353823  0.92549573    -0.10100
C1532       C  0.98437021  0.55921176  0.91790783    -0.11800
C1533       C  0.00637311  0.56953903  0.90469741    -0.01500
C1534       C  0.02774102  0.55417946  0.90208060    -0.10600
C1535       C  0.00066581  0.48955139  0.91977082     0.05800
H1536       H  0.96558863  0.52598958  0.93462872     0.07700
H1537       H  0.96776458  0.57068888  0.92102634     0.11200
H1538       H  0.04512705  0.56152511  0.89234080     0.11500
H1539       H  0.04264039  0.51702192  0.90424113     0.07800
C1540       C  0.97800425  0.47845403  0.90953035    -0.11400
C1541       C  0.97668240  0.45268566  0.90283291    -0.10600
C1542       C  0.99805699  0.43740614  0.90582574    -0.01500
C1543       C  0.02003885  0.44796600  0.91871377    -0.11700
C1544       C  0.02127098  0.47370308  0.92580571    -0.10100
H1545       H  0.96172210  0.48988126  0.90443455     0.07800
H1546       H  0.95934213  0.44514180  0.89326393     0.11500
H1547       H  0.03666625  0.43657334  0.92207921     0.11200
H1548       H  0.03875601  0.48136124  0.93478774     0.07800
C1549       C  0.47651281  0.52124615  0.64005194    -0.11300
C1550       C  0.49038040  0.49943146  0.63294106     0.05800
C1551       C  0.47705961  0.47698342  0.62662750    -0.10100
C1552       C  0.45072269  0.47623140  0.62813959    -0.11800
C1553       C  0.43691852  0.49793527  0.63585077    -0.01500
C1554       C  0.45017412  0.52053721  0.64133970    -0.10600
C1555       C  0.51854578  0.50000313  0.63255964     0.05800
H1556       H  0.48697278  0.45995058  0.62027789     0.07700
H1557       H  0.44118481  0.45856586  0.62334506     0.11200
H1558       H  0.44023885  0.53763661  0.64739756     0.11500
H1559       H  0.48601610  0.53882166  0.64541045     0.07800
C1560       C  0.53180592  0.52142382  0.62193403    -0.11400
C1561       C  0.55817617  0.52206312  0.62215518    -0.10600
C1562       C  0.57203117  0.50128053  0.63293171    -0.01500
C1563       C  0.55882099  0.47971537  0.64303745    -0.11700
C1564       C  0.53247964  0.47913532  0.64301290    -0.10100
H1565       H  0.52181636  0.53763228  0.61301138     0.07800
H1566       H  0.56771302  0.53887638  0.61384810     0.11500
H1567       H  0.56881787  0.46341722  0.65172718     0.11200
H1568       H  0.52304157  0.46245438  0.65184677     0.07800
C1569       C  0.28312847  0.60347301  0.67889912    -0.11300
C1570       C  0.30959157  0.60529202  0.67767924     0.05800
C1571       C  0.32104960  0.62783917  0.68781102    -0.10100
C1572       C  0.30653701  0.64755489  0.69992394    -0.11800
C1573       C  0.28029924  0.64506301  0.70259276    -0.01500
C1574       C  0.26870310  0.62298501  0.69154301    -0.10600
C1575       C  0.32510311  0.58311753  0.66817485     0.05800
H1576       H  0.34129834  0.62992227  0.68763273     0.07700
H1577       H  0.31596696  0.66440262  0.70832213     0.11200
H1578       H  0.24847640  0.62069775  0.69295057     0.11500
H1579       H  0.27348133  0.58675984  0.67050667     0.07800
C1580       C  0.31690644  0.55865542  0.67579581    -0.11400
C1581       C  0.33148037  0.53773181  0.66842540    -0.10600
C1582       C  0.35499221  0.54047525  0.65360213    -0.01500
C1583       C  0.36342428  0.56484731  0.64589792    -0.11700
C1584       C  0.34853862  0.58596001  0.65292150    -0.10100
H1585       H  0.29945140  0.55556283  0.68833571     0.07800
H1586       H  0.32444075  0.51930499  0.67513795     0.11500
H1587       H  0.38137974  0.56756421  0.63433492     0.11200
H1588       H  0.35538824  0.60447677  0.64634978     0.07800
C1589       C  0.35294056  0.40789594  0.67370693    -0.11300
C1590       C  0.32668391  0.40841338  0.66901567     0.05800
C1591       C  0.31642325  0.42854383  0.65199892    -0.10100
C1592       C  0.33152210  0.44863113  0.64228884    -0.11800
C1593       C  0.35739478  0.44911925  0.64901863    -0.01500
C1594       C  0.36820330  0.42808749  0.66369507    -0.10600
C1595       C  0.30963238  0.38930527  0.68363608     0.05800
H1596       H  0.29646078  0.42920439  0.64703619     0.07700
H1597       H  0.32268533  0.46438786  0.63058026     0.11200
H1598       H  0.38807429  0.42800087  0.66929184     0.11500
H1599       H  0.36147675  0.39265296  0.68669992     0.07800
C1600       C  0.31625381  0.36369976  0.68534158    -0.11400
C1601       C  0.30010577  0.34616401  0.69971527    -0.10600
C1602       C  0.27707746  0.35389450  0.71277468    -0.01500
C1603       C  0.27043222  0.37940606  0.71097141    -0.11700
C1604       C  0.28650564  0.39687588  0.69668427    -0.10100
H1605       H  0.33380796  0.35719884  0.67538080     0.07800
H1606       H  0.30571998  0.32657721  0.70079807     0.11500
H1607       H  0.25290429  0.38595990  0.72097562     0.11200
H1608       H  0.28098918  0.41650368  0.69646571     0.07800
C1609       C  0.38452391  0.81753669  0.82143453    -0.11300
C1610       C  0.40157549  0.80699116  0.79988893     0.05800
C1611       C  0.39927253  0.78112555  0.79269254    -0.10100
C1612       C  0.38100712  0.76612330  0.80739741    -0.11800
C1613       C  0.36423828  0.77674055  0.82904413    -0.01500
C1614       C  0.36594660  0.80263219  0.83559914    -0.10600
C1615       C  0.42267267  0.82246978  0.78680830     0.05800
H1616       H  0.41165678  0.77236716  0.77577405     0.07700
H1617       H  0.37987966  0.74624899  0.80168484     0.11200
H1618       H  0.35330143  0.81125425  0.85236616     0.11500
H1619       H  0.38594950  0.83716081  0.82816147     0.07800
C1620       C  0.41999447  0.84853051  0.78116375    -0.11400
C1621       C  0.44078134  0.86337601  0.77245091    -0.10600
C1622       C  0.46463813  0.85243240  0.76896748    -0.01500
C1623       C  0.46692396  0.82619389  0.77285817    -0.11700
C1624       C  0.44634168  0.81149629  0.78182794    -0.10100
H1625       H  0.40193680  0.85757864  0.78403299     0.07800
H1626       H  0.43830085  0.88347962  0.76937059     0.11500
H1627       H  0.48492426  0.81696995  0.77018296     0.11200
H1628       H  0.44940212  0.79165696  0.78627435     0.07800
C1629       C  0.57762365  0.81627655  0.76851156    -0.11300
C1630       C  0.59564182  0.82572250  0.78962125     0.05800
C1631       C  0.59437177  0.85133307  0.79837715    -0.10100
C1632       C  0.57472839  0.86663457  0.78772498    -0.11800
C1633       C  0.55581971  0.85649735  0.76853566    -0.01500
C1634       C  0.55785263  0.83140378  0.75835834    -0.10600
C1635       C  0.61459481  0.80853661  0.80385389     0.05800
H1636       H  0.60773074  0.85925715  0.81481495     0.07700
H1637       H  0.57337717  0.88582041  0.79624876     0.11200
H1638       H  0.54354609  0.82317618  0.74339404     0.11500
H1639       H  0.57836021  0.79693948  0.76044323     0.07800
C1640       C  0.60825296  0.78330835  0.81077146    -0.11400
C1641       C  0.62553579  0.76737851  0.82529485    -0.10600
C1642       C  0.64951971  0.77630394  0.83344865    -0.01500
C1643       C  0.65604282  0.80136729  0.82642194    -0.11700
C1644       C  0.63880233  0.81729785  0.81171911    -0.10100
H1645       H  0.58965167  0.77595502  0.80575553     0.07800
H1646       H  0.61998746  0.74816596  0.83053929     0.11500
H1647       H  0.67446047  0.80873196  0.83245251     0.11200
H1648       H  0.64450546  0.83643187  0.80641853     0.07800
C1649       C  0.68782266  0.62485478  0.95056697    -0.11300
C1650       C  0.66222457  0.61834369  0.95273273     0.05800
C1651       C  0.64427007  0.63462575  0.93965004    -0.10100
C1652       C  0.65175475  0.65694128  0.92476354    -0.11800
C1653       C  0.67733394  0.66354240  0.92285385    -0.01500
C1654       C  0.69530038  0.64725456  0.93583899    -0.10600
C1655       C  0.65421533  0.59443971  0.96802766     0.05800
H1656       H  0.62444021  0.62991015  0.94055702     0.07700
H1657       H  0.63750723  0.66906299  0.91481909     0.11200
H1658       H  0.71514828  0.65187127  0.93471706     0.11500
H1659       H  0.70204101  0.61273874  0.96059364     0.07800
C1660       C  0.66668618  0.57171443  0.96147806    -0.11400
C1661       C  0.65800054  0.54889047  0.97410930    -0.10600
C1662       C  0.63672813  0.54832337  0.99371937    -0.01500
C1663       C  0.62492426  0.57129136  0.50126459    -0.11700
C1664       C  0.63349861  0.59402434  0.98847161    -0.10100
H1665       H  0.68263980  0.57147167  0.94567236     0.07800
H1666       H  0.66753544  0.53162201  0.96776900     0.11500
H1667       H  0.60859599  0.57170607  0.51646844     0.11200
H1668       H  0.62376642  0.61130574  0.49434359     0.07800
C1669       C  0.62519198  0.41090105  0.97754624    -0.11300
C1670       C  0.65013689  0.40778118  0.96713601     0.05800
C1671       C  0.66669534  0.42860947  0.96969262    -0.10100
C1672       C  0.65836455  0.45183732  0.98153273    -0.11800
C1673       C  0.63342609  0.45472695  0.99181887    -0.01500
C1674       C  0.61707787  0.43385725  0.98996852    -0.10600
C1675       C  0.65842934  0.38322023  0.95292009     0.05800
H1676       H  0.68618931  0.42706815  0.96270337     0.07700
H1677       H  0.67149427  0.46749591  0.48277348     0.11200
H1678       H  0.59763785  0.43540358  0.99729897     0.11500
H1679       H  0.61151211  0.39584521  0.97538321     0.07800
C1680       C  0.64679937  0.36016329  0.96131634    -0.11400
C1681       C  0.65356047  0.33749415  0.94666112    -0.10600
C1682       C  0.67264956  0.33710968  0.92393562    -0.01500
C1683       C  0.68477773  0.35982264  0.91607619    -0.11700
C1684       C  0.67756505  0.38258343  0.93002079    -0.10100
H1685       H  0.63251143  0.35944676  0.97937151     0.07800
H1686       H  0.64410898  0.32018643  0.95343913     0.11500
H1687       H  0.69947306  0.36008874  0.89846756     0.11200
H1688       H  0.68670787  0.39972763  0.92216420     0.07800
C1689       C  0.37546993  0.58784032  0.95847596    -0.11300
C1690       C  0.34982033  0.59424762  0.95826904     0.05800
C1691       C  0.33220262  0.57619104  0.96896727    -0.10100
C1692       C  0.34012170  0.55251297  0.97976252    -0.11800
C1693       C  0.36581617  0.54662673  0.48068343    -0.01500
C1694       C  0.38335120  0.56448937  0.46980466    -0.10600
C1695       C  0.34172501  0.61947149  0.94638205     0.05800
H1696       H  0.31233035  0.58046227  0.96949769     0.07700
H1697       H  0.32625009  0.53909067  0.98819094     0.11200
H1698       H  0.40327074  0.56029014  0.46980074     0.11500
H1699       H  0.38958114  0.60078804  0.94958101     0.07800
C1700       C  0.35706710  0.64097221  0.95061383    -0.11400
C1701       C  0.35054984  0.66416663  0.93730058    -0.10600
C1702       C  0.32828706  0.66657381  0.91995699    -0.01500
C1703       C  0.31239540  0.64549011  0.91679068    -0.11700
C1704       C  0.31910439  0.62217531  0.92962862    -0.10100
H1705       H  0.37427985  0.63989448  0.96409263     0.07800
H1706       H  0.36296550  0.68020256  0.94047715     0.11500
H1707       H  0.29510664  0.64681867  0.90347527     0.11200
H1708       H  0.30692317  0.60612027  0.92551307     0.07800
C1709       C  0.46936167  0.52255705  0.55226891    -0.11300
C1710       C  0.48419600  0.50080864  0.54863767     0.05800
C1711       C  0.47213700  0.47802781  0.54059356    -0.10100
C1712       C  0.44647768  0.47751070  0.53367825    -0.11800
C1713       C  0.43236121  0.49982751  0.53400370    -0.01500
C1714       C  0.44380880  0.52215350  0.54461149    -0.10600
C1715       C  0.51222821  0.50247857  0.54905202     0.05800
H1716       H  0.48271235  0.46085329  0.53741724     0.07700
H1717       H  0.43816903  0.45990864  0.52588373     0.11200
H1718       H  0.43325213  0.53953773  0.54586454     0.11500
H1719       H  0.47767564  0.54022729  0.55976002     0.07800
C1720       C  0.52435472  0.52446771  0.53822160    -0.11400
C1721       C  0.55029283  0.52497538  0.53349770    -0.10600
C1722       C  0.56479480  0.50334271  0.53870879    -0.01500
C1723       C  0.55311617  0.48182943  0.55140649    -0.11700
C1724       C  0.52712795  0.48147684  0.55679077    -0.10100
H1725       H  0.51375302  0.54092366  0.03143329     0.07800
H1726       H  0.55866911  0.54187000  0.02363371     0.11500
H1727       H  0.56391676  0.46501270  0.55616561     0.11200
H1728       H  0.51866112  0.46446733  0.56617534     0.07800
C1729       C  0.35379565  0.36584261  0.93950030    -0.11300
C1730       C  0.33568079  0.38166946  0.95320247     0.05800
C1731       C  0.31036323  0.37392401  0.95320416    -0.10100
C1732       C  0.30335778  0.35077503  0.93993903    -0.11800
C1733       C  0.32151293  0.33501026  0.92626405    -0.01500
C1734       C  0.34678835  0.34279970  0.92614261    -0.10600
C1735       C  0.34340329  0.40618074  0.96719632     0.05800
H1736       H  0.29604305  0.38564164  0.96378018     0.07700
H1737       H  0.28372156  0.34522614  0.94034871     0.11200
H1738       H  0.36116355  0.33111603  0.91561827     0.11500
H1739       H  0.37340094  0.37146660  0.93871711     0.07800
C1740       C  0.36528412  0.40769299  0.98545300    -0.11400
C1741       C  0.37395221  0.43090044  0.99653106    -0.10600
C1742       C  0.36109219  0.45334883  0.48945837    -0.01500
C1743       C  0.33857695  0.45175039  0.97227361    -0.11700
C1744       C  0.32975746  0.42835984  0.96136860    -0.10100
H1745       H  0.37592979  0.39088238  0.99085375     0.07800
H1746       H  0.39124781  0.43122767  0.50990742     0.11500
H1747       H  0.32814232  0.46860785  0.46652149     0.11200
H1748       H  0.31281483  0.42774849  0.94732205     0.07800
C1749       C  0.48066053  0.02935445  0.74280914    -0.11300
C1750       C  0.50340756  0.01673445  0.74884442     0.05800
C1751       C  0.52494269  0.03133948  0.75545831    -0.10100
C1752       C  0.52355051  0.05763864  0.75731270    -0.11800
C1753       C  0.50053226  0.07007717  0.75300279    -0.01500
C1754       C  0.47919955  0.05564629  0.74509973    -0.10600
C1755       C  0.50443557  0.98855181  0.74984179     0.05800
H1756       H  0.54276270  0.02246830  0.76047517     0.07700
H1757       H  0.54039088  0.06813811  0.76330959     0.11200
H1758       H  0.46126288  0.06463813  0.74099215     0.11500
H1759       H  0.46384995  0.01891857  0.73654887     0.07800
C1760       C  0.48365740  0.97445154  0.76065779    -0.11400
C1761       C  0.48484282  0.94818032  0.76299033    -0.10600
C1762       C  0.50693668  0.93522677  0.75498725    -0.01500
C1763       C  0.52766904  0.94917232  0.74389283    -0.11700
C1764       C  0.52639234  0.97547043  0.74118854    -0.10100
H1765       H  0.46658390  0.98370590  0.76814109     0.07800
H1766       H  0.46854844  0.93805474  0.77175033     0.11500
H1767       H  0.54482714  0.93973984  0.73700930     0.11200
H1768       H  0.54257820  0.98549391  0.73198097     0.07800
C1769       C  0.42671080  0.18548964  0.77922229    -0.11300
C1770       C  0.40837157  0.17369351  0.79794330     0.05800
C1771       C  0.40984842  0.14747803  0.80282340    -0.10100
C1772       C  0.43030373  0.13375951  0.79098448    -0.11800
C1773       C  0.44955652  0.14615152  0.77433579    -0.01500
C1774       C  0.44709476  0.17194237  0.76775815    -0.10600
C1775       C  0.38897308  0.18930808  0.81372406     0.05800
H1776       H  0.39597034  0.13786277  0.81714481     0.07700
H1777       H  0.43186013  0.11389750  0.79652182     0.11200
H1778       H  0.46150220  0.18190582  0.75463722     0.11500
H1779       H  0.42571798  0.20547348  0.77419530     0.07800
C1780       C  0.39574006  0.21291883  0.82624414    -0.11400
C1781       C  0.37777628  0.22839577  0.84008767    -0.10600
C1782       C  0.35259659  0.22059316  0.84204726    -0.01500
C1783       C  0.34575839  0.19676214  0.83025040    -0.11700
C1784       C  0.36382405  0.18120667  0.81622352    -0.10100
H1785       H  0.41507223  0.21945076  0.82547867     0.07800
H1786       H  0.38364951  0.24650271  0.84931933     0.11500
H1787       H  0.32644129  0.19024153  0.83166609     0.11200
H1788       H  0.35805309  0.16313952  0.80679170     0.07800
C1789       C  0.60403496  0.22589602  0.79651929    -0.11300
C1790       C  0.60468158  0.19937318  0.79847109     0.05800
C1791       C  0.62527269  0.18803318  0.81346155    -0.10100
C1792       C  0.64404555  0.20283888  0.82740219    -0.11800
C1793       C  0.64251551  0.22929653  0.82699151    -0.01500
C1794       C  0.62263046  0.24068287  0.81083227    -0.10600
C1795       C  0.58291020  0.18384729  0.78751039     0.05800
H1796       H  0.62632538  0.16773538  0.81571749     0.07700
H1797       H  0.65923843  0.19354530  0.83964267     0.11200
H1798       H  0.62120983  0.26102866  0.80973441     0.11500
H1799       H  0.58880770  0.23528916  0.78449437     0.07800
C1800       C  0.55833121  0.19274411  0.79195068    -0.11400
C1801       C  0.53760287  0.17790236  0.78404303    -0.10600
C1802       C  0.54069095  0.15347397  0.77176139    -0.01500
C1803       C  0.56523879  0.14460459  0.76663642    -0.11700
C1804       C  0.58615301  0.15966740  0.77438095    -0.10100
H1805       H  0.55498005  0.21094620  0.80263433     0.07800
H1806       H  0.51905725  0.18544283  0.78855699     0.11500
H1807       H  0.56828762  0.12594627  0.75706132     0.11200
H1808       H  0.60483275  0.15231598  0.77032879     0.07800
C1809       C  0.89942507  0.71956442  0.57071958    -0.11300
C1810       C  0.89290176  0.69564703  0.55881263     0.05800
C1811       C  0.86757912  0.68799144  0.55978192    -0.10100
C1812       C  0.84924628  0.70378845  0.57260219    -0.11800
C1813       C  0.85584557  0.72755267  0.58472409    -0.01500
C1814       C  0.88109331  0.73535648  0.58349682    -0.10600
C1815       C  0.91262429  0.67870733  0.54602786     0.05800
H1816       H  0.86193128  0.66983122  0.55052660     0.07700
H1817       H  0.82990021  0.69728918  0.57327793     0.11200
H1818       H  0.88674737  0.75347332  0.59291405     0.11500
H1819       H  0.91884450  0.72587218  0.57081656     0.07800
C1820       C  0.93241673  0.68875704  0.52808180    -0.11400
C1821       C  0.95241631  0.67359381  0.51878694    -0.10600
C1822       C  0.95309472  0.64795002  0.52699898    -0.01500
C1823       C  0.93263642  0.63740176  0.54328255    -0.11700
C1824       C  0.91257228  0.65269984  0.55282581    -0.10100
H1825       H  0.93271803  0.70853146  0.52177429     0.07800
H1826       H  0.96782989  0.68216374  0.50591979     0.11500
H1827       H  0.93281706  0.61773958  0.55013159     0.11200
H1828       H  0.89762516  0.64442156  0.56675750     0.07800
C1829       C  0.08987054  0.65509477  0.52637009    -0.11300
C1830       C  0.08741518  0.67951452  0.53912023     0.05800
C1831       C  0.06318565  0.68892030  0.54449694    -0.10100
C1832       C  0.04202236  0.67442974  0.53775617    -0.11800
C1833       C  0.04425074  0.64983978  0.52564887    -0.01500
C1834       C  0.06844818  0.64034663  0.51973807    -0.10600
C1835       C  0.10959766  0.69484396  0.54901420     0.05800
H1836       H  0.06046608  0.70728703  0.55502354     0.07700
H1837       H  0.02380232  0.68246124  0.54296832     0.11200
H1838       H  0.07081185  0.62154894  0.51029430     0.11500
H1839       H  0.10831274  0.64735081  0.52175882     0.07800
C1840       C  0.13005861  0.68351261  0.56425571    -0.11400
C1841       C  0.14900376  0.69835451  0.57778500    -0.10600
C1842       C  0.14778643  0.72481273  0.57656863    -0.01500
C1843       C  0.12801376  0.73613728  0.56013210    -0.11700
C1844       C  0.10925087  0.72132263  0.54628947    -0.10100
H1845       H  0.13084203  0.66325129  0.56704681     0.07800
H1846       H  0.16416540  0.68912106  0.59016497     0.11500
H1847       H  0.12685667  0.75646756  0.55835161     0.11200
H1848       H  0.09408111  0.73067118  0.53407550     0.07800
C1849       C  0.18554414  0.12240418  0.69383654    -0.11300
C1850       C  0.16024150  0.11643106  0.70019562     0.05800
C1851       C  0.14171750  0.13451814  0.69354000    -0.10100
C1852       C  0.14828230  0.15796290  0.68082103    -0.11800
C1853       C  0.17355317  0.16398291  0.67465198    -0.01500
C1854       C  0.19213926  0.14598576  0.68134820    -0.10600
C1855       C  0.15293163  0.09144436  0.71346369     0.05800
H1856       H  0.12202914  0.13037652  0.69772385     0.07700
H1857       H  0.13354835  0.17139025  0.67580086     0.11200
H1858       H  0.21178696  0.15008735  0.67676970     0.11500
H1859       H  0.20025318  0.10895131  0.69887560     0.07800
C1860       C  0.16352370  0.06898135  0.70200601    -0.11400
C1861       C  0.15497879  0.04545952  0.71283356    -0.10600
C1862       C  0.13570502  0.04389428  0.73543589    -0.01500
C1863       C  0.12596055  0.06644160  0.74780519    -0.11700
C1864       C  0.13442547  0.08985622  0.73693572    -0.10100
H1865       H  0.17776359  0.06957178  0.68383444     0.07800
H1866       H  0.16295958  0.02852022  0.70279983     0.11500
H1867       H  0.11132902  0.06606981  0.76549209     0.11200
H1868       H  0.12625668  0.10680458  0.74670588     0.07800
C1869       C  0.13095862  0.90449879  0.72648605    -0.11300
C1870       C  0.14737828  0.90418455  0.70065757     0.05800
C1871       C  0.15605189  0.92727145  0.68841887    -0.10100
C1872       C  0.14855529  0.95017787  0.70180513    -0.11800
C1873       C  0.13193209  0.95050224  0.72746479    -0.01500
C1874       C  0.12320973  0.92736195  0.73960322    -0.10600
C1875       C  0.15560207  0.87984620  0.68673075     0.05800
H1876       H  0.16888610  0.92758749  0.66868967     0.07700
H1877       H  0.15548175  0.96762303  0.69174546     0.11200
H1878       H  0.11033986  0.92687749  0.75930237     0.11500
H1879       H  0.12380567  0.88703171  0.73625665     0.07800
C1880       C  0.16335236  0.85988857  0.70606834    -0.11400
C1881       C  0.17168110  0.83718992  0.69299984    -0.10600
C1882       C  0.17218595  0.83382516  0.66031115    -0.01500
C1883       C  0.16412427  0.85364026  0.64096520    -0.11700
C1884       C  0.15601108  0.87644537  0.65403803    -0.10100
H1885       H  0.16345369  0.86203415  0.73131383     0.07800
H1886       H  0.17789296  0.82230434  0.70851392     0.11500
H1887       H  0.16434173  0.85161109  0.61571817     0.11200
H1888       H  0.14990681  0.89140565  0.63857962     0.07800
C1889       C  0.82952204  0.07500789  0.71932172    -0.11300
C1890       C  0.84621590  0.09431429  0.70982187     0.05800
C1891       C  0.87223932  0.08990349  0.71204651    -0.10100
C1892       C  0.88130914  0.06721944  0.72391931    -0.11800
C1893       C  0.86468518  0.04798042  0.73316847    -0.01500
C1894       C  0.83868384  0.05196085  0.73055597    -0.10600
C1895       C  0.83686017  0.11883536  0.69723457     0.05800
H1896       H  0.88577562  0.10380089  0.70411509     0.07700
H1897       H  0.90147537  0.06452050  0.72517290     0.11200
H1898       H  0.82547841  0.03742993  0.73766587     0.11500
H1899       H  0.80937021  0.07773820  0.71842309     0.07800
C1900       C  0.81446638  0.12009816  0.67969272    -0.11400
C1901       C  0.80653545  0.14297588  0.66672069    -0.10600
C1902       C  0.82109205  0.16494024  0.67040633    -0.01500
C1903       C  0.84319442  0.16387508  0.68817956    -0.11700
C1904       C  0.85079592  0.14121668  0.70181080    -0.10100
H1905       H  0.80335827  0.10331942  0.67520749     0.07800
H1906       H  0.78941732  0.14333894  0.65298763     0.11500
H1907       H  0.85453945  0.18065839  0.69173171     0.11200
H1908       H  0.86767845  0.14132891  0.71594165     0.07800
C1909       C  0.86467546  0.90923656  0.73666125    -0.11300
C1910       C  0.84474727  0.90823844  0.71509810     0.05800
C1911       C  0.83299415  0.93086654  0.70631130    -0.10100
C1912       C  0.84161860  0.95401619  0.71798372    -0.11800
C1913       C  0.86225498  0.95502037  0.73856065    -0.01500
C1914       C  0.87334803  0.93229884  0.74818091    -0.10600
C1915       C  0.83696817  0.88372652  0.70115466     0.05800
H1916       H  0.81771047  0.93078447  0.68955812     0.07700
H1917       H  0.83266002  0.97115384  0.71002213     0.11200
H1918       H  0.88912791  0.93229165  0.76420130     0.11500
H1919       H  0.87375531  0.89213965  0.74451727     0.07800
C1920       C  0.85518332  0.86559208  0.69339223    -0.11400
C1921       C  0.84814498  0.84260189  0.68005474    -0.10600
C1922       C  0.82274846  0.83721380  0.67415056    -0.01500
C1923       C  0.80444170  0.85515126  0.68202238    -0.11700
C1924       C  0.81149000  0.87825004  0.69528721    -0.10100
H1925       H  0.87499946  0.86934392  0.69706289     0.07800
H1926       H  0.86261612  0.82909565  0.67416697     0.11500
H1927       H  0.78470071  0.85143495  0.67760527     0.11200
H1928       H  0.79698607  0.89168957  0.70126295     0.07800
C1929       C  0.02606935  0.97512773  0.79097366    -0.11300
C1930       C  0.01425836  0.99820570  0.79780118     0.05800
C1931       C  0.02957308  0.01979259  0.80139440    -0.10100
C1932       C  0.05529747  0.01893833  0.79458922    -0.11800
C1933       C  0.06641069  0.99638325  0.78447456    -0.01500
C1934       C  0.05182749  0.97421658  0.78465058    -0.10600
C1935       C  0.98620656  0.00033069  0.79640431     0.05800
H1936       H  0.02158217  0.03772145  0.80812086     0.07700
H1937       H  0.06614275  0.03625772  0.79561074     0.11200
H1938       H  0.05983039  0.95637871  0.77747696     0.11500
H1939       H  0.01530486  0.95798089  0.78787361     0.07800
C1940       C  0.97507470  0.02268960  0.78539821    -0.11400
C1941       C  0.94951078  0.02352518  0.77821602    -0.10600
C1942       C  0.93433489  0.00193832  0.78128162    -0.01500
C1943       C  0.94488969  0.98002500  0.79412787    -0.11700
C1944       C  0.97046015  0.97930449  0.80187675    -0.10100
H1945       H  0.98624767  0.03925423  0.78020279     0.07800
H1946       H  0.94201988  0.04076910  0.76845552     0.11500
H1947       H  0.93357065  0.96318943  0.79735714     0.11200
H1948       H  0.97793701  0.96194645  0.81126197     0.07800
C1949       C  0.02147446  0.47330215  0.51103027    -0.11300
C1950       C  0.99960334  0.48655415  0.50282388     0.05800
C1951       C  0.97787053  0.47255010  0.99502415    -0.10100
C1952       C  0.97777158  0.44613399  0.99665135    -0.11800
C1953       C  0.99949613  0.43304386  0.50570437    -0.01500
C1954       C  0.02146523  0.44697034  0.51223059    -0.10600
C1955       C  0.99924526  0.51475641  0.50391143     0.05800
H1956       H  0.96085650  0.48198487  0.98770908     0.07700
H1957       H  0.96065973  0.43597507  0.99092869     0.11200
H1958       H  0.03857649  0.43756786  0.51930215     0.11500
H1959       H  0.03848871  0.48324575  0.51761815     0.07800
C1960       C  0.97745747  0.52759572  0.51351484    -0.11400
C1961       C  0.97740954  0.55386488  0.51638590    -0.10600
C1962       C  0.99922720  0.56811077  0.51009726    -0.01500
C1963       C  0.02093564  0.55541676  0.99999667    -0.11700
C1964       C  0.02090826  0.52910663  0.99677687    -0.10100
H1965       H  0.96053444  0.51733222  0.51976607     0.07800
H1966       H  0.96034417  0.56295257  0.52429867     0.11500
H1967       H  0.03796154  0.56581458  0.99448196     0.11200
H1968       H  0.03787871  0.52004553  0.98854188     0.07800
C1969       C  0.87281052  0.31723383  0.57464980    -0.11300
C1970       C  0.89014862  0.30701511  0.55323261     0.05800
C1971       C  0.88760598  0.28140893  0.54485058    -0.10100
C1972       C  0.86901606  0.26619914  0.55858138    -0.11800
C1973       C  0.85221211  0.27633082  0.58055447    -0.01500
C1974       C  0.85396195  0.30209526  0.58798182    -0.10600
C1975       C  0.91185566  0.32237511  0.54150106     0.05800
H1976       H  0.90023157  0.27298436  0.52793061     0.07700
H1977       H  0.86786700  0.24646970  0.55214442     0.11200
H1978       H  0.84126456  0.31036986  0.60495713     0.11500
H1979       H  0.87434117  0.33670862  0.58202000     0.07800
C1980       C  0.90959896  0.34835933  0.53506998    -0.11400
C1981       C  0.93070631  0.36277791  0.52614614    -0.10600
C1982       C  0.95450691  0.35150833  0.52347296    -0.01500
C1983       C  0.95646929  0.32541884  0.52911464    -0.11700
C1984       C  0.93557016  0.31116024  0.53809611    -0.10100
H1985       H  0.89155958  0.35758699  0.53712451     0.07800
H1986       H  0.92847336  0.38278417  0.52197741     0.11500
H1987       H  0.97439847  0.31591600  0.52741192     0.11200
H1988       H  0.93827204  0.29139698  0.54340975     0.07800
C1989       C  0.09875190  0.28636287  0.57270485    -0.11300
C1990       C  0.10625705  0.30874714  0.55758126     0.05800
C1991       C  0.13182820  0.31563851  0.55809038    -0.10100
C1992       C  0.14946628  0.30029533  0.57319469    -0.11800
C1993       C  0.14181939  0.27791228  0.58820994    -0.01500
C1994       C  0.11629938  0.27112609  0.58776808    -0.10600
C1995       C  0.08707836  0.32477709  0.54206054     0.05800
H1996       H  0.13819108  0.33269408  0.54658195     0.07700
H1997       H  0.16908282  0.30598888  0.57321765     0.11200
H1998       H  0.10984054  0.25409656  0.59925885     0.11500
H1999       H  0.07911906  0.28077526  0.57338521     0.07800
C2000       C  0.06709805  0.31338078  0.52575753    -0.11400
C2001       C  0.04678039  0.32765347  0.51551630    -0.10600
C2002       C  0.04603277  0.35373663  0.52097400    -0.01500
C2003       C  0.06692613  0.36559400  0.53488557    -0.11700
C2004       C  0.08728681  0.35118655  0.54546890    -0.10100
H2005       H  0.06673440  0.29321363  0.52190445     0.07800
H2006       H  0.03112128  0.31806638  0.50436691     0.11500
H2007       H  0.06681197  0.38568024  0.03940554     0.11200
H2008       H  0.10244136  0.36052853  0.55791833     0.07800
C2009       C  0.15409724  0.91133584  0.92038335    -0.11300
C2010       C  0.18022992  0.91437123  0.92469211     0.05800
C2011       C  0.19096019  0.93825055  0.91961811    -0.10100
C2012       C  0.17607614  0.95861900  0.91104118    -0.11800
C2013       C  0.14986892  0.95590811  0.90759165    -0.01500
C2014       C  0.13904821  0.93191924  0.91189855    -0.10600
C2015       C  0.19635555  0.89330791  0.93582313     0.05800
H2016       H  0.21086275  0.94151042  0.92328990     0.07700
H2017       H  0.18521250  0.97674234  0.90791667     0.11200
H2018       H  0.11895278  0.92916681  0.90939987     0.11500
H2019       H  0.14525772  0.89310102  0.92376207     0.07800
C2020       C  0.18751129  0.87626522  0.95860392    -0.11400
C2021       C  0.20349678  0.85798659  0.97112596    -0.10600
C2022       C  0.22871410  0.85652370  0.96137050    -0.01500
C2023       C  0.23744029  0.87308489  0.93813082    -0.11700
C2024       C  0.22139581  0.89113804  0.92531539    -0.10100
H2025       H  0.16848724  0.87757018  0.96755595     0.07800
H2026       H  0.19628465  0.84538550  0.98901894     0.11500
H2027       H  0.25670196  0.87211885  0.92989462     0.11200
H2028       H  0.22870589  0.90356710  0.90732121     0.07800
C2029       C  0.57113357  0.16826459  0.58714504    -0.11300
C2030       C  0.59111537  0.15179757  0.58018445     0.05800
C2031       C  0.58715609  0.12570413  0.58372226    -0.10100
C2032       C  0.56413881  0.11639121  0.59444704    -0.11800
C2033       C  0.54424989  0.13283767  0.60128402    -0.01500
C2034       C  0.54784482  0.15884711  0.59723131    -0.10600
C2035       C  0.61580925  0.16154473  0.56866864     0.05800
H2036       H  0.60167867  0.11231290  0.57774113     0.07700
H2037       H  0.56179350  0.09617935  0.59690795     0.11200
H2038       H  0.53284611  0.17192361  0.60251342     0.11500
H2039       H  0.57350990  0.18847830  0.58522405     0.07800
C2040       C  0.61714574  0.18328948  0.54978661    -0.11400
C2041       C  0.64019076  0.19159917  0.53769456    -0.10600
C2042       C  0.66226814  0.17805226  0.54363287    -0.01500
C2043       C  0.66115620  0.15663332  0.56281054    -0.11700
C2044       C  0.63825477  0.14866703  0.57555303    -0.10100
H2045       H  0.60034146  0.19351569  0.54349642     0.07800
H2046       H  0.64061571  0.20815973  0.52281252     0.11500
H2047       H  0.67802285  0.14608970  0.56803026     0.11200
H2048       H  0.63821225  0.13231615  0.59074485     0.07800
C2049       C  0.57012537  0.82814789  0.59114822    -0.11300
C2050       C  0.59261493  0.84177310  0.59536398     0.05800
C2051       C  0.59261509  0.86302027  0.61492613    -0.10100
C2052       C  0.57043206  0.87108711  0.62908736    -0.11800
C2053       C  0.54759981  0.85823756  0.62378513    -0.01500
C2054       C  0.54777358  0.83634823  0.60517022    -0.10600
C2055       C  0.61598088  0.83439756  0.57889026     0.05800
H2056       H  0.60979972  0.87356859  0.61904233     0.07700
H2057       H  0.57112493  0.88789140  0.64348328     0.11200
H2058       H  0.53053799  0.82602055  0.60059565     0.11500
H2059       H  0.56966370  0.81169450  0.57611982     0.07800
C2060       C  0.62369741  0.80912867  0.57821370    -0.11400
C2061       C  0.64624021  0.80246394  0.56352023    -0.10600
C2062       C  0.66132001  0.82092561  0.54902935    -0.01500
C2063       C  0.65336391  0.84612066  0.54921637    -0.11700
C2064       C  0.63095007  0.85280033  0.56408606    -0.10100
H2065       H  0.61255738  0.79463658  0.58960775     0.07800
H2066       H  0.65194480  0.78288384  0.56365610     0.11500
H2067       H  0.66456715  0.86070350  0.53810368     0.11200
H2068       H  0.62523602  0.87238043  0.56391202     0.07800
C2069       C  0.40969862  0.86584023  0.61739609    -0.11300
C2070       C  0.40870718  0.84460471  0.59777939     0.05800
C2071       C  0.43069643  0.83040742  0.59324977    -0.10100
C2072       C  0.45343224  0.83794344  0.60692856    -0.11800
C2073       C  0.45466698  0.85982467  0.62548398    -0.01500
C2074       C  0.43236603  0.87330739  0.63119988    -0.10600
C2075       C  0.38505213  0.83772414  0.58127699     0.05800
H2076       H  0.43053320  0.81401873  0.57814941     0.07700
H2077       H  0.47020773  0.82709427  0.60201100     0.11200
H2078       H  0.43251112  0.89012251  0.64555940     0.11500
H2079       H  0.39295196  0.87687229  0.62178898     0.07800
C2080       C  0.37745508  0.81239479  0.57900328    -0.11400
C2081       C  0.35562833  0.80580959  0.56265232    -0.10600
C2082       C  0.34095361  0.82438123  0.54809140    -0.01500
C2083       C  0.34838650  0.84975989  0.55051859    -0.11700
C2084       C  0.37020982  0.85636974  0.56699600    -0.10100
H2085       H  0.38832982  0.79766939  0.59005564     0.07800
H2086       H  0.35025747  0.78610769  0.56136980     0.11500
H2087       H  0.33741700  0.86446249  0.53957155     0.11200
H2088       H  0.37575022  0.87603655  0.56805323     0.07800
C2089       C  0.48102200  0.96967890  0.67860332    -0.11300
C2090       C  0.50191600  0.98434704  0.66954938     0.05800
C2091       C  0.52419294  0.97207992  0.66064479    -0.10100
C2092       C  0.52498905  0.94584805  0.65875654    -0.11800
C2093       C  0.50340848  0.93132938  0.66524982    -0.01500
C2094       C  0.48171621  0.94343001  0.67631676    -0.10600
C2095       C  0.49977160  0.01210979  0.66621934     0.05800
H2096       H  0.54059449  0.98272717  0.65329432     0.07700
H2097       H  0.54203703  0.93711596  0.65016344     0.11200
H2098       H  0.46494430  0.93268351  0.68200955     0.11500
H2099       H  0.46384292  0.97853434  0.68652407     0.07800
C2100       C  0.47750293  0.02265494  0.65438463    -0.11400
C2101       C  0.47642929  0.04818211  0.64674466    -0.10600
C2102       C  0.49770345  0.06365399  0.65035595    -0.01500
C2103       C  0.51954103  0.05353090  0.66380793    -0.11700
C2104       C  0.52052816  0.02801938  0.67181617    -0.10100
H2105       H  0.46127943  0.01094732  0.64932292     0.07800
H2106       H  0.45937987  0.05543941  0.63629632     0.11500
H2107       H  0.53609891  0.06517995  0.66730800     0.11200
H2108       H  0.53775039  0.02061882  0.68164131     0.07800
C2109       C  0.14885395  0.08851224  0.92845258    -0.11300
C2110       C  0.17476710  0.08941237  0.92173340     0.05800
C2111       C  0.18554014  0.06993641  0.90405650    -0.10100
C2112       C  0.17121108  0.04907878  0.89523619    -0.11800
C2113       C  0.14571979  0.04732892  0.90363514    -0.01500
C2114       C  0.13438433  0.06758475  0.91938294    -0.10600
C2115       C  0.19115296  0.10915993  0.93548299     0.05800
H2116       H  0.20535366  0.07041208  0.89805782     0.07700
H2117       H  0.18032578  0.03381347  0.88283725     0.11200
H2118       H  0.11479068  0.06654682  0.92635664     0.11500
H2119       H  0.14014403  0.10325954  0.94219902     0.07800
C2120       C  0.18424202  0.13467160  0.93503476    -0.11400
C2121       C  0.19978369  0.15290476  0.94888392    -0.10600
C2122       C  0.22230116  0.14583601  0.96368325    -0.01500
C2123       C  0.22920921  0.12036634  0.96395535    -0.11700
C2124       C  0.21382213  0.10223572  0.94997753    -0.10100
H2125       H  0.16690424  0.14047347  0.92390975     0.07800
H2126       H  0.19402091  0.17245825  0.94841158     0.11500
H2127       H  0.24638352  0.11438801  0.97532246     0.11200
H2128       H  0.21940057  0.08264461  0.95110707     0.07800
C2129       C  0.42672096  0.16609363  0.57876728    -0.11300
C2130       C  0.40426959  0.15498339  0.58964894     0.05800
C2131       C  0.40565375  0.13535733  0.61162894    -0.10100
C2132       C  0.42891168  0.12620979  0.62144667    -0.11800
C2133       C  0.45143247  0.13640232  0.60944681    -0.01500
C2134       C  0.45009705  0.15687089  0.58854918    -0.10600
C2135       C  0.37946618  0.16283320  0.57709720     0.05800
H2136       H  0.38866147  0.12678786  0.62089737     0.07700
H2137       H  0.42917695  0.11067700  0.63790412     0.11200
H2138       H  0.46706816  0.16519572  0.57888645     0.11500
H2139       H  0.42620160  0.18122480  0.56175019     0.07800
C2140       C  0.37351995  0.18843976  0.57339937    -0.11400
C2141       C  0.35006981  0.19555362  0.56147601    -0.10600
C2142       C  0.33226599  0.17719309  0.55265804    -0.01500
C2143       C  0.33826198  0.15161398  0.55622271    -0.11700
C2144       C  0.36156029  0.14451669  0.56842652    -0.10100
H2145       H  0.38691155  0.20293912  0.58001688     0.07800
H2146       H  0.34597816  0.21542013  0.55881419     0.11500
H2147       H  0.32497337  0.13706784  0.54945472     0.11200
H2148       H  0.36576059  0.12463479  0.57058543     0.07800
C2149       C  0.97185755  0.97677625  0.88061189    -0.11300
C2150       C  0.98614473  0.99850074  0.88732344     0.05800
C2151       C  0.97329428  0.02076578  0.89537521    -0.10100
C2152       C  0.94699554  0.02119093  0.89710863    -0.11800
C2153       C  0.93280853  0.99930060  0.89115881    -0.01500
C2154       C  0.94557427  0.97716277  0.88253349    -0.10600
C2155       C  0.01426163  0.99785376  0.88686595     0.05800
H2156       H  0.98354541  0.03778496  0.90129728     0.07700
H2157       H  0.93783495  0.03853584  0.90394975     0.11200
H2158       H  0.93525985  0.96000277  0.87736100     0.11500
H2159       H  0.98094907  0.95942916  0.87367248     0.07800
C2160       C  0.02743175  0.97616089  0.89635775    -0.11400
C2161       C  0.05377297  0.97617266  0.89771587    -0.10600
C2162       C  0.06758744  0.99793769  0.88990031    -0.01500
C2163       C  0.05450583  0.01933202  0.87952612    -0.11700
C2164       C  0.02824423  0.01927881  0.87801090    -0.10100
H2165       H  0.01741287  0.95939427  0.90380759     0.07800
H2166       H  0.06325516  0.95938861  0.90588839     0.11500
H2167       H  0.06455901  0.03628779  0.87276510     0.11200
H2168       H  0.01890992  0.03612169  0.86980480     0.07800
C2169       C  0.81204520  0.06182719  0.92753254    -0.11300
C2170       C  0.82215600  0.08630474  0.92618452     0.05800
C2171       C  0.84743870  0.08925269  0.91659154    -0.10100
C2172       C  0.86210879  0.06816098  0.90867269    -0.11800
C2173       C  0.85169943  0.04376149  0.90995017    -0.01500
C2174       C  0.82641130  0.04103377  0.91924128    -0.10600
C2175       C  0.80619471  0.10820735  0.93550332     0.05800
H2176       H  0.85586712  0.10782162  0.91499202     0.07700
H2177       H  0.88150714  0.07094202  0.90164453     0.11200
H2178       H  0.81761895  0.02262290  0.92091294     0.11500
H2179       H  0.79304380  0.05847935  0.93573604     0.07800
C2180       C  0.77996965  0.10750889  0.93055288    -0.11400
C2181       C  0.76446667  0.12654339  0.94213403    -0.10600
C2182       C  0.77481287  0.14718944  0.95809897    -0.01500
C2183       C  0.80103415  0.14871069  0.96182860    -0.11700
C2184       C  0.81656759  0.12930591  0.95090994    -0.10100
H2185       H  0.77124608  0.09208354  0.91792732     0.07800
H2186       H  0.74433247  0.12506764  0.93868703     0.11500
H2187       H  0.80944065  0.16442865  0.97428849     0.11200
H2188       H  0.83654368  0.13046461  0.95553829     0.07800
C2189       C  0.81208447  0.93165372  0.90662369    -0.11300
C2190       C  0.82232129  0.91148433  0.92358633     0.05800
C2191       C  0.84841511  0.91130449  0.92937137    -0.10100
C2192       C  0.86361201  0.93162330  0.91993740    -0.11800
C2193       C  0.85287305  0.95248644  0.90488050    -0.01500
C2194       C  0.82712814  0.95195526  0.89758923    -0.10600
C2195       C  0.80544873  0.89167255  0.93667769     0.05800
H2196       H  0.85687227  0.89610991  0.94253793     0.07700
H2197       H  0.88337197  0.93170264  0.92609451     0.11200
H2198       H  0.81840948  0.96770570  0.88572258     0.11500
H2199       H  0.79223965  0.93207118  0.90096978     0.07800
C2200       C  0.78168007  0.89823056  0.94869992    -0.11400
C2201       C  0.76582492  0.87995044  0.96163416    -0.10600
C2202       C  0.77341687  0.85470748  0.96304984    -0.01500
C2203       C  0.79705212  0.84799814  0.95092387    -0.11700
C2204       C  0.81294066  0.86631307  0.93787506    -0.10100
H2205       H  0.77549409  0.91765775  0.94877673     0.07800
H2206       H  0.74776874  0.88565594  0.97096301     0.11500
H2207       H  0.80335719  0.82861363  0.95176408     0.11200
H2208       H  0.83099351  0.86060811  0.92857183     0.07800
loop_ 
_geom_bond_atom_site_label_1 
_geom_bond_atom_site_label_2 
_geom_bond_distance 
_geom_bond_site_symmetry_2 
_ccdc_geom_bond_type 
C1            N2   1.369   1_565  A
C1            N6   1.364       .  A
C1         C1049   1.488       .  S
N2            C3   1.363       .  A
C3            N4   1.352   1_545  A
C3         C1069   1.488       .  S
N4            C5   1.350       .  A
C5            N6   1.357       .  A
C5         C1089   1.475       .  S
In7           O9   2.241       .  S
In7          O10   2.263       .  S
In7          O18   2.246       .  S
In7          O12   2.247       .  S
In7        O1118   2.239   1_554  S
In7        O1119   2.255   1_554  S
In7        O1120   2.240   1_554  S
In7        O1123   2.238   1_554  S
C8         C1018   1.474       .  S
C8           O14   1.263       .  A
C8           O16   1.261       .  A
O9           C17   1.256       .  A
O10          C17   1.259       .  A
C11        C1038   1.479       .  S
C11          O18   1.262       .  A
C11          O12   1.263       .  A
C13         C169   1.460       .  S
C13          O15   1.259       .  A
C13          O19   1.257       .  A
O14       In1111   2.239       .  S
O15       In1111   2.255       .  S
O16       In1111   2.240       .  S
C17         C114   1.462       .  S
O19       In1111   2.238       .  S
C20          N21   1.361       .  A
C20          N25   1.356       .  A
C20         C949   1.482       .  S
N21          C22   1.363       .  A
C22          N23   1.359       .  A
C22         C969   1.485       .  S
N23          C24   1.356       .  A
C24          N25   1.354       .  A
C24         C989   1.477       .  S
C26          N27   1.359       .  A
C26          N31   1.362       .  A
C26        C1029   1.484       .  S
N27          C28   1.356       .  A
C28          N29   1.354       .  A
C28         C998   1.475       .  S
N29          C30   1.356       .  A
C30          N31   1.362       .  A
C30         C929   1.476       .  S
In32         O43   2.235       .  S
In32         O37   2.252       .  S
In32         O40   2.258       .  S
In32         O44   2.229       .  S
In32       O1138   2.242   1_554  S
In32       O1139   2.276   1_554  S
In32       O1143   2.261   1_554  S
In32       O1145   2.244   1_554  S
C33         C918   1.476       .  S
C33          O39   1.261       .  A
C33          O41   1.256       .  A
O34       In1136   2.242       .  S
O34          C42   1.257       .  A
O35       In1136   2.276       .  S
O35          C42   1.259       .  A
C36         C978   1.479       .  S
C36          O43   1.263       .  A
C36          O37   1.265       .  A
C38         C131   1.463       .  S
C38          O40   1.265       .  A
C38          O44   1.259       .  A
O39       In1136   2.261       .  S
O41       In1136   2.244       .  S
C42         C216   1.468       .  S
In45         O47   2.238       .  S
In45         O48   2.259       .  S
In45         O56   2.238       .  S
In45         O50   2.240       .  S
In45       O1156   2.240       .  S
In45       O1157   2.258       .  S
In45       O1158   2.242       .  S
In45       O1161   2.237       .  S
C46         C958   1.475       .  S
C46          O52   1.262       .  A
C46          O54   1.262       .  A
O47          C55   1.258       .  A
O48          C55   1.259       .  A
C49        C1098   1.474       .  S
C49          O56   1.261       .  A
C49          O50   1.263       .  A
C51         C140   1.461       .  S
C51          O53   1.260       .  A
C51          O57   1.257       .  A
O52       In1149   2.240       .  S
O53       In1149   2.258       .  S
O54       In1149   2.242       .  S
C55         C207   1.462       .  S
O57       In1149   2.237       .  S
In58         O69   2.246       .  S
In58         O63   2.244       .  S
In58         O66   2.260       .  S
In58         O70   2.224       .  S
In58       O1164   2.220       .  S
In58       O1165   2.270       .  S
In58       O1169   2.242       .  S
In58       O1171   2.244       .  S
C59         C938   1.472       .  S
C59          O65   1.261       .  A
C59          O67   1.260       .  A
O60       In1162   2.220       .  S
O60          C68   1.256       .  A
O61       In1162   2.270       .  S
O61          C68   1.262       .  A
C62        C1078   1.476       .  S
C62          O69   1.261       .  A
C62          O63   1.263       .  A
C64         C194   1.461       .  S
C64          O66   1.263       .  A
C64          O70   1.259       .  A
O65       In1162   2.242       .  S
O67       In1162   2.244       .  S
C68         C101   1.461       .  S
C71          N72   1.363   1_565  A
C71          N76   1.367       .  A
C71        C1058   1.485       .  S
N72          C73   1.356       .  A
C73          N74   1.351       .  A
C73        C1009   1.474       .  S
N74          C75   1.353   1_545  A
C75          N76   1.363       .  A
C75         C909   1.486       .  S
C77          N78   1.363   1_655  A
C77          N82   1.368       .  A
C77         C849   1.488       .  S
N78          C79   1.356       .  A
C79          N80   1.352       .  A
C79         C898   1.478       .  S
N80          C81   1.355   1_455  A
C81          N82   1.365       .  A
C81         C878   1.491       .  S
C83          N84   1.360       .  A
C83          N88   1.362   1_565  A
C83         C809   1.483       .  S
N84          C85   1.357   1_565  A
C85          N86   1.356       .  A
C85         C838   1.482       .  S
N86          C87   1.357       .  A
C87          N88   1.360       .  A
C87         C789   1.478       .  S
C89          N90   1.364   1_545  A
C89          N94   1.361       .  A
C89         C758   1.490       .  S
N90          C91   1.363       .  A
C91          N92   1.357       .  A
C91         C769   1.486       .  S
N92          C93   1.356       .  A
C93          N94   1.358   1_565  A
C93         C829   1.484       .  S
In95         O97   2.223       .  S
In95         O98   2.270       .  S
In95        O106   2.246       .  S
In95        O100   2.263       .  S
In95        O102   2.248       .  S
In95        O103   2.269       .  S
In95        O104   2.248       .  S
In95        O107   2.222       .  S
C96         C798   1.476       .  S
C96         O102   1.263       .  A
C96         O104   1.261       .  A
O97         C105   1.258       .  A
O98         C105   1.263       .  A
C99         C869   1.480       .  S
C99         O106   1.259       .  A
C99         O100   1.263       .  A
C101        O103   1.262       .  A
C101        O107   1.257       .  A
C105        C266   1.464       .  S
In108       O110   2.248       .  S
In108       O111   2.264       .  S
In108       O119   2.251       .  S
In108       O113   2.255       .  S
In108       O115   2.245       .  S
In108       O116   2.256       .  S
In108       O117   2.250       .  S
In108       O120   2.237       .  S
C109        C889   1.479       .  S
C109        O115   1.263       .  A
C109        O117   1.261       .  A
O110        C118   1.257       .  A
O111        C118   1.259       .  A
C112        C749   1.483       .  S
C112        O119   1.261       .  A
C112        O113   1.263       .  A
C114        O116   1.261       .  A
C114        O120   1.259       .  A
C118        C257   1.465       .  S
In121       O123   2.250       .  S
In121       O124   2.264       .  S
In121       O132   2.256       .  S
In121       O126   2.265       .  S
In121       O128   2.260       .  S
In121       O129   2.270       .  S
In121       O130   2.243       .  S
In121       O133   2.226       .  S
C122        C738   1.479       .  S
C122        O128   1.263       .  A
C122        O130   1.259       .  A
O123        C131   1.257       .  A
O124        C131   1.255       .  A
C125        C778   1.483       .  S
C125        O132   1.259       .  A
C125        O126   1.261       .  A
C127        C292   1.466       .  S
C127        O129   1.264       .  A
C127        O133   1.259       .  A
In134       O136   2.235       .  S
In134       O137   2.254       .  S
In134       O145   2.241       .  S
In134       O139   2.236       .  S
In134       O141   2.248       .  S
In134       O142   2.259       .  S
In134       O143   2.239       .  S
In134       O146   2.238       .  S
C135        C709   1.478       .  S
C135        O141   1.263       .  A
C135        O143   1.262       .  A
O136        C144   1.256       .  A
O137        C144   1.259       .  A
C138        C818   1.473       .  S
C138        O145   1.261       .  A
C138        O139   1.262       .  A
C140        O142   1.260       .  A
C140        O146   1.258       .  A
C144        C283   1.458       .  S
C147        N148   1.369   1_655  A
C147        N152   1.366       .  A
C147        C858   1.489       .  S
N148        C149   1.363       .  A
C149        N150   1.352   1_455  A
C149        C729   1.487       .  S
N150        C151   1.349       .  A
C151        N152   1.358       .  A
C151        C718   1.477       .  S
C153        N154   1.365       .  A
C153        N158   1.367       .  A
C153        C649   1.487       .  S
N154        C155   1.359       .  A
C155        N156   1.352       .  A
C155        C669   1.477       .  S
N156        C157   1.353       .  A
C157        N158   1.361       .  A
C157        C698   1.487       .  S
In159       O161   2.235       .  S
In159       O162   2.254       .  S
In159       O170   2.246       .  S
In159       O164   2.243       .  S
In159       O166   2.235       .  S
In159       O167   2.263       .  S
In159       O168   2.252       .  S
In159       O171   2.237       .  S
C160        C678   1.476       .  S
C160        O166   1.262       .  A
C160        O168   1.261       .  A
O161        C169   1.257       .  A
O162        C169   1.261       .  A
C163        C629   1.479       .  S
C163        O170   1.262       .  A
C163        O164   1.263       .  A
C165        C253   1.463       .  S
C165        O167   1.260       .  A
C165        O171   1.257       .  A
C172        N173   1.358   1_556  A
C172        N177   1.365       .  A
C172        C638   1.488       .  S
N173        C174   1.354       .  A
C174        N175   1.356       .  A
C174        C609   1.480       .  S
N175        C176   1.359   1_554  A
C176        N177   1.364       .  A
C176        C589   1.480       .  S
C178        N179   1.357       .  A
C178        N183   1.365   1_554  A
C178       C1662   1.488   1_554  S
N179        C180   1.355       .  A
C180        N181   1.356       .  A
C180        C618   1.479       .  S
N181        C182   1.360       .  A
C182        N183   1.365   1_554  A
C182       C1673   1.489   1_554  S
In184       O186   2.227       .  S
In184       O187   2.266       .  S
In184       O195   2.240       .  S
In184       O189   2.265       .  S
In184       O191   2.272       .  S
In184       O192   2.267       .  S
In184       O193   2.246       .  S
In184       O196   2.226       .  S
C185        C578   1.483       .  S
C185        O191   1.264       .  A
C185        O193   1.260       .  A
O186        C194   1.257       .  A
O187        C194   1.261       .  A
C188        C689   1.480       .  S
C188        O195   1.258       .  A
C188        O189   1.264       .  A
C190        C270   1.462       .  S
C190        O192   1.261       .  A
C190        O196   1.258       .  A
In197       O199   2.234       .  S
In197       O200   2.262       .  S
In197       O208   2.247       .  S
In197       O202   2.247       .  S
In197       O204   2.241       .  S
In197       O205   2.266       .  S
In197       O206   2.238       .  S
In197       O209   2.233       .  S
C198        C538   1.476       .  S
C198        O204   1.263       .  A
C198        O206   1.261       .  A
O199        C207   1.257       .  A
O200        C207   1.262       .  A
C201        C549   1.480       .  S
C201        O208   1.262       .  A
C201        O202   1.262       .  A
C203        C279   1.462       .  S
C203        O205   1.261       .  A
C203        O209   1.257       .  A
In210       O212   2.235       .  S
In210       O213   2.281       .  S
In210       O221   2.249       .  S
In210       O215   2.260       .  S
In210       O217   2.261       .  S
In210       O218   2.273       .  S
In210       O219   2.242       .  S
In210       O222   2.231       .  S
C211        C509   1.478       .  S
C211        O217   1.263       .  A
C211        O219   1.259       .  A
O212        C220   1.258       .  A
O213        C220   1.263       .  A
C214        C598   1.481       .  S
C214        O221   1.260       .  A
C214        O215   1.263       .  A
C216        O218   1.264       .  A
C216        O222   1.258       .  A
C220        C296   1.471       .  S
C223        N224   1.366       .  A
C223        N228   1.365       .  A
C223        C658   1.487       .  S
N224        C225   1.361       .  A
C225        N226   1.352       .  A
C225        C529   1.476       .  S
N226        C227   1.352       .  A
C227        N228   1.360       .  A
C227        C518   1.485       .  S
C229        N230   1.368       .  A
C229        N234   1.368       .  A
C229        C449   1.492       .  S
N230        C231   1.361       .  A
C231        N232   1.352       .  A
C231        C478   1.485       .  S
N232        C233   1.352       .  A
C233        N234   1.361       .  A
C233        C489   1.482       .  S
C235        N236   1.359       .  A
C235        N240   1.361       .  A
C235        C389   1.477       .  S
N236        C237   1.357       .  A
C237        N238   1.357   1_655  A
C237        C438   1.485       .  S
N238        C239   1.360       .  A
C239        N240   1.363   1_455  A
C239        C409   1.487       .  S
C241        N242   1.362       .  A
C241        N246   1.365   1_655  A
C241        C349   1.493       .  S
N242        C243   1.358   1_655  A
C243        N244   1.357       .  A
C243        C429   1.486       .  S
N244        C245   1.358       .  A
C245        N246   1.364       .  A
C245        C378   1.484       .  S
In247       O249   2.244       .  S
In247       O250   2.262       .  S
In247       O258   2.251       .  S
In247       O252   2.247       .  S
In247       O254   2.252       .  S
In247       O255   2.264       .  S
In247       O256   2.247       .  S
In247       O259   2.240       .  S
C248        C418   1.480       .  S
C248        O254   1.263       .  A
C248        O256   1.261       .  A
O249        C257   1.258       .  A
O250        C257   1.260       .  A
C251        C498   1.481       .  S
C251        O258   1.261       .  A
C251        O252   1.263       .  A
C253        O255   1.260       .  A
C253        O259   1.257       .  A
In260       O262   2.224       .  S
In260       O263   2.274       .  S
In260       O271   2.242       .  S
In260       O265   2.250       .  S
In260       O267   2.241       .  S
In260       O268   2.277       .  S
In260       O269   2.250       .  S
In260       O272   2.230       .  S
C261        C398   1.476       .  S
C261        O267   1.262       .  A
C261        O269   1.262       .  A
O262        C270   1.255       .  A
O263        C270   1.262       .  A
C264        C338   1.478       .  S
C264        O271   1.261       .  A
C264        O265   1.263       .  A
C266        O268   1.261       .  A
C266        O272   1.256       .  A
In273       O275   2.234       .  S
In273       O276   2.251       .  S
In273       O284   2.251       .  S
In273       O278   2.251       .  S
In273       O280   2.253       .  S
In273       O281   2.267       .  S
In273       O282   2.256       .  S
In273       O285   2.236       .  S
C274        C358   1.484       .  S
C274        O280   1.263       .  A
C274        O282   1.261       .  A
O275        C283   1.259       .  A
O276        C283   1.260       .  A
C277        C318   1.481       .  S
C277        O284   1.261       .  A
C277        O278   1.264       .  A
C279        O281   1.259       .  A
C279        O285   1.256       .  A
In286       O288   2.236       .  S
In286       O289   2.285       .  S
In286       O297   2.249       .  S
In286       O291   2.251       .  S
In286       O293   2.249       .  S
In286       O294   2.273       .  S
In286       O295   2.255       .  S
In286       O298   2.228       .  S
C287        C369   1.480       .  S
C287        O293   1.262       .  A
C287        O295   1.261       .  A
O288        C296   1.256       .  A
O289        C296   1.262       .  A
C290        C469   1.479       .  S
C290        O297   1.261       .  A
C290        O291   1.263       .  A
C292        O294   1.263       .  A
C292        O298   1.257       .  A
C299        N300   1.366       .  A
C299        N304   1.366       .  A
C299        C458   1.490       .  S
N300        C301   1.360       .  A
C301        N302   1.353       .  A
C301        C329   1.481       .  S
N302        C303   1.353       .  A
C303        N304   1.361       .  A
C303        C309   1.481       .  S
C305        C306   1.405       .  A
C305        C310   1.395       .  A
C305        H315   1.083       .  S
C306        C311   1.489       .  S
C306        C307   1.409       .  A
C307        C308   1.404       .  A
C307        H312   1.082       .  S
C308        C309   1.405       .  A
C308        H313   1.083       .  S
C309        C310   1.405       .  A
C310        H314   1.083       .  S
C311        C316   1.408       .  A
C311        C320   1.406       .  A
C316        C317   1.397       .  A
C316        H321   1.083       .  S
C317        C318   1.403       .  A
C317        H322   1.082       .  S
C318        C319   1.407       .  A
C319        C320   1.402       .  A
C319        H323   1.084       .  S
C320        H324   1.082       .  S
C325        C326   1.403       .  A
C325        C330   1.393       .  A
C325        H335   1.083       .  S
C326        C331   1.488       .  S
C326        C327   1.409       .  A
C327        C328   1.404       .  A
C327        H332   1.083       .  S
C328        C329   1.404       .  A
C328        H333   1.083       .  S
C329        C330   1.406       .  A
C330        H334   1.083       .  S
C331        C336   1.408       .  A
C331        C340   1.405       .  A
C336        C337   1.398       .  A
C336        H341   1.084       .  S
C337        C338   1.403       .  A
C337        H342   1.082       .  S
C338        C339   1.405       .  A
C339        C340   1.400       .  A
C339        H343   1.084       .  S
C340        H344   1.082       .  S
C345        C346   1.405       .  A
C345        C350   1.398       .  A
C345        H355   1.083       .  S
C346        C351   1.493       .  S
C346        C347   1.408       .  A
C347        C348   1.405       .  A
C347        H352   1.083       .  S
C348        C349   1.409       .  A
C348        H353   1.083       .  S
C349        C350   1.408       .  A
C350        H354   1.083       .  S
C351        C356   1.407       .  A
C351        C360   1.407       .  A
C356        C357   1.399       .  A
C356        H361   1.083       .  S
C357        C358   1.404       .  A
C357        H362   1.082       .  S
C358        C359   1.407       .  A
C359        C360   1.404       .  A
C359        H363   1.084       .  S
C360        H364   1.083       .  S
C365        C366   1.411       .  A
C365        C370   1.402       .  A
C365        H375   1.082       .  S
C366        C371   1.503       .  S
C366        C367   1.411       .  A
C367        C368   1.398       .  A
C367        H372   1.081       .  S
C368        C369   1.401       .  A
C368        H373   1.083       .  S
C369        C370   1.404       .  A
C370        H374   1.083       .  S
C371        C376   1.413       .  A
C371        C380   1.409       .  A
C376        C377   1.405       .  A
C376        H381   1.082       .  S
C377        C378   1.404       .  A
C377        H382   1.083       .  S
C378        C379   1.404       .  A
C379        C380   1.397       .  A
C379        H383   1.084       .  S
C380        H384   1.081       .  S
C385        C386   1.411       .  A
C385        C390   1.404       .  A
C385        H395   1.083       .  S
C386        C391   1.495       .  S
C386        C387   1.408       .  A
C387        C388   1.394       .  A
C387        H392   1.081       .  S
C388        C389   1.402       .  A
C388        H393   1.084       .  S
C389        C390   1.404       .  A
C390        H394   1.083       .  S
C391        C396   1.409       .  A
C391        C400   1.410       .  A
C396        C397   1.401       .  A
C396        H401   1.082       .  S
C397        C398   1.404       .  A
C397        H402   1.083       .  S
C398        C399   1.401       .  A
C399        C400   1.396       .  A
C399        H403   1.083       .  S
C400        H404   1.082       .  S
C405        C406   1.406       .  A
C405        C410   1.402       .  A
C405        H415   1.083       .  S
C406        C411   1.484       .  S
C406        C407   1.402       .  A
C407        C408   1.396       .  A
C407        H412   1.083       .  S
C408        C409   1.408       .  A
C408        H413   1.083       .  S
C409        C410   1.408       .  A
C410        H414   1.083       .  S
C411        C416   1.404       .  A
C411        C420   1.406       .  A
C416        C417   1.400       .  A
C416        H421   1.083       .  S
C417        C418   1.406       .  A
C417        H422   1.084       .  S
C418        C419   1.404       .  A
C419        C420   1.399       .  A
C419        H423   1.082       .  S
C420        H424   1.084       .  S
C425        C426   1.407       .  A
C425        C430   1.396       .  A
C425        H435   1.081       .  S
C426        C431   1.494       .  S
C426        C427   1.408   1_455  A
C427        C428   1.401       .  A
C427        H432   1.083       .  S
C428        C429   1.406   1_655  A
C428        H433   1.083       .  S
C429        C430   1.405       .  A
C430        H434   1.083       .  S
C431        C436   1.408   1_455  A
C431        C440   1.408       .  A
C436        C437   1.398       .  A
C436        H441   1.081       .  S
C437        C438   1.405       .  A
C437        H442   1.083       .  S
C438        C439   1.406   1_655  A
C439        C440   1.399       .  A
C439        H443   1.083       .  S
C440        H444   1.083       .  S
C445        C446   1.408       .  A
C445        C450   1.401       .  A
C445        H455   1.082       .  S
C446        C451   1.497       .  S
C446        C447   1.408       .  A
C447        C448   1.402       .  A
C447        H452   1.082       .  S
C448        C449   1.407       .  A
C448        H453   1.083       .  S
C449        C450   1.407       .  A
C450        H454   1.083       .  S
C451        C456   1.409       .  A
C451        C460   1.408       .  A
C456        C457   1.402       .  A
C456        H461   1.082       .  S
C457        C458   1.406       .  A
C457        H462   1.083       .  S
C458        C459   1.407       .  A
C459        C460   1.400       .  A
C459        H463   1.083       .  S
C460        H464   1.082       .  S
C465        C466   1.410       .  A
C465        C470   1.398       .  A
C465        H475   1.083       .  S
C466        C471   1.495       .  S
C466        C467   1.407       .  A
C467        C468   1.401       .  A
C467        H472   1.081       .  S
C468        C469   1.405       .  A
C468        H473   1.083       .  S
C469        C470   1.402       .  A
C470        H474   1.083       .  S
C471        C476   1.405       .  A
C471        C480   1.412       .  A
C476        C477   1.392       .  A
C476        H481   1.082       .  S
C477        C478   1.407       .  A
C477        H482   1.083       .  S
C478        C479   1.405       .  A
C479        C480   1.406       .  A
C479        H483   1.083       .  S
C480        H484   1.082       .  S
C485        C486   1.411       .  A
C485        C490   1.406       .  A
C485        H495   1.082       .  S
C486        C491   1.492       .  S
C486        C487   1.404       .  A
C487        C488   1.393       .  A
C487        H492   1.083       .  S
C488        C489   1.405       .  A
C488        H493   1.083       .  S
C489        C490   1.405       .  A
C490        H494   1.083       .  S
C491        C496   1.406       .  A
C491        C500   1.409       .  A
C496        C497   1.403       .  A
C496        H501   1.082       .  S
C497        C498   1.407       .  A
C497        H502   1.083       .  S
C498        C499   1.402       .  A
C499        C500   1.397       .  A
C499        H503   1.083       .  S
C500        H504   1.083       .  S
C505        C506   1.407       .  A
C505        C510   1.398       .  A
C505        H515   1.082       .  S
C506        C511   1.494       .  S
C506        C507   1.410       .  A
C507        C508   1.400       .  A
C507        H512   1.082       .  S
C508        C509   1.402       .  A
C508        H513   1.083       .  S
C509        C510   1.404       .  A
C510        H514   1.083       .  S
C511        C516   1.411       .  A
C511        C520   1.405       .  A
C516        C517   1.403       .  A
C516        H521   1.082       .  S
C517        C518   1.405       .  A
C517        H522   1.083       .  S
C518        C519   1.407       .  A
C519        C520   1.393       .  A
C519        H523   1.083       .  S
C520        H524   1.082       .  S
C525        C526   1.406       .  A
C525        C530   1.395       .  A
C525        H535   1.082       .  S
C526        C531   1.492       .  S
C526        C527   1.410       .  A
C527        C528   1.402       .  A
C527        H532   1.082       .  S
C528        C529   1.402       .  A
C528        H533   1.083       .  S
C529        C530   1.404       .  A
C530        H534   1.084       .  S
C531        C536   1.409       .  A
C531        C540   1.407       .  A
C536        C537   1.397       .  A
C536        H541   1.083       .  S
C537        C538   1.402       .  A
C537        H542   1.083       .  S
C538        C539   1.404       .  A
C539        C540   1.399       .  A
C539        H543   1.084       .  S
C540        H544   1.081       .  S
C545        C546   1.405       .  A
C545        C550   1.400       .  A
C545        H555   1.083       .  S
C546        C551   1.486       .  S
C546        C547   1.406       .  A
C547        C548   1.399       .  A
C547        H552   1.083       .  S
C548        C549   1.405       .  A
C548        H553   1.083       .  S
C549        C550   1.405       .  A
C550        H554   1.083       .  S
C551        C556   1.406       .  A
C551        C560   1.404       .  A
C556        C557   1.401       .  A
C556        H561   1.083       .  S
C557        C558   1.406       .  A
C557        H562   1.083       .  S
C558       C1282   1.488       .  S
C558       C1663   1.410       .  A
C559       C1662   1.410   1_554  A
C559       C1664   1.398   1_554  A
C559        H563   1.083       .  S
C560       C1663   1.398       .  A
C560       H1668   1.084       .  S
H564       C1664   1.084       .  S
C565        C566   1.408       .  A
C565        C570   1.397       .  A
C565        H575   1.081       .  S
C566        C571   1.504       .  S
C566        C567   1.413       .  A
C567        C568   1.405       .  A
C567        H572   1.081       .  S
C568        C569   1.405       .  A
C568       H1677   1.083       .  S
C569       C1286   1.489       .  S
C569        C570   1.406       .  A
C570        H574   1.083       .  S
C571        C576   1.413       .  A
C571        C580   1.410       .  A
H573       C1672   1.083       .  S
C576        C577   1.403       .  A
C576        H581   1.081       .  S
C577        C578   1.402       .  A
C577        H582   1.083       .  S
C578        C579   1.404       .  A
C579        C580   1.400       .  A
C579        H583   1.083       .  S
C580        H584   1.082       .  S
C585        C586   1.407       .  A
C585       C1694   1.396       .  A
C585        H595   1.083       .  S
C586        C591   1.496       .  S
C586        C587   1.411       .  A
C587        C588   1.404       .  A
C587        H592   1.082       .  S
C588       C1693   1.403       .  A
C588        H593   1.083       .  S
C589        C590   1.404       .  A
C589       C1692   1.403       .  A
C590       C1689   1.396       .  A
C590        H594   1.083       .  S
C591        C596   1.410       .  A
C591        C600   1.408       .  A
C596        C597   1.400       .  A
C596        H601   1.083       .  S
C597        C598   1.403       .  A
C597        H602   1.083       .  S
C598        C599   1.405       .  A
C599        C600   1.400       .  A
C599        H603   1.084       .  S
C600        H604   1.082       .  S
C605        C606   1.409       .  A
C605        C610   1.397       .  A
C605        H615   1.082       .  S
C606        C611   1.492       .  S
C606        C607   1.407       .  A
C607        C608   1.396       .  A
C607        H612   1.081       .  S
C608        C609   1.405       .  A
C608        H613   1.083       .  S
C609        C610   1.404       .  A
C610        H614   1.083       .  S
C611        C616   1.407       .  A
C611        C620   1.409       .  A
C616        C617   1.393       .  A
C616       H1725   1.081       .  S
C617        C618   1.403       .  A
C617       H1726   1.083       .  S
C618        C619   1.405       .  A
C619        C620   1.400       .  A
C619        H623   1.082       .  S
C620        H624   1.083       .  S
H621       C1720   1.081       .  S
H622       C1721   1.083       .  S
C625        C626   1.407       .  A
C625        C630   1.397       .  A
C625        H635   1.083       .  S
C626        C631   1.486       .  S
C626        C627   1.405       .  A
C627        C628   1.401       .  A
C627        H632   1.083       .  S
C628        C629   1.406       .  A
C628        H633   1.083       .  S
C629        C630   1.404       .  A
C630        H634   1.083       .  S
C631        C636   1.403       .  A
C631        C640   1.407       .  A
C636        C637   1.395       .  A
C636        H641   1.083       .  S
C637       C1742   1.409       .  A
C637       H1746   1.083       .  S
C638       C1741   1.409       .  A
C638       C1743   1.406       .  A
C639        C640   1.403       .  A
C639       C1742   1.406       .  A
C639       H1747   1.083       .  S
C640        H644   1.083       .  S
H642       C1741   1.083   1_554  S
H643       C1743   1.083       .  S
C645        C646   1.409       .  A
C645        C650   1.400       .  A
C645        H655   1.083       .  S
C646        C651   1.497   1_545  S
C646        C647   1.408       .  A
C647        C648   1.399       .  A
C647        H652   1.081       .  S
C648        C649   1.405       .  A
C648        H653   1.083       .  S
C649        C650   1.406       .  A
C650        H654   1.083       .  S
C651        C656   1.408       .  A
C651        C660   1.409       .  A
C656        C657   1.399       .  A
C656        H661   1.082       .  S
C657        C658   1.405       .  A
C657        H662   1.083       .  S
C658        C659   1.406       .  A
C659        C660   1.401       .  A
C659        H663   1.082       .  S
C660        H664   1.082       .  S
C665        C666   1.404       .  A
C665        C670   1.391       .  A
C665        H675   1.083       .  S
C666        C671   1.486       .  S
C666        C667   1.408       .  A
C667        C668   1.404       .  A
C667        H672   1.083       .  S
C668        C669   1.405       .  A
C668        H673   1.083       .  S
C669        C670   1.403       .  A
C670        H674   1.083       .  S
C671        C676   1.407       .  A
C671        C680   1.406       .  A
C676        C677   1.393       .  A
C676        H681   1.083       .  S
C677        C678   1.401       .  A
C677        H682   1.083       .  S
C678        C679   1.407       .  A
C679        C680   1.402       .  A
C679        H683   1.083       .  S
C680        H684   1.082       .  S
C685        C686   1.410       .  A
C685        C690   1.400       .  A
C685        H695   1.082       .  S
C686        C691   1.493       .  S
C686        C687   1.406       .  A
C687        C688   1.400       .  A
C687        H692   1.083       .  S
C688        C689   1.406       .  A
C688        H693   1.083       .  S
C689        C690   1.402       .  A
C690        H694   1.083       .  S
C691        C696   1.404       .  A
C691        C700   1.410       .  A
C696        C697   1.393       .  A
C696        H701   1.083       .  S
C697        C698   1.408       .  A
C697        H702   1.083       .  S
C698        C699   1.406       .  A
C699        C700   1.405       .  A
C699        H703   1.083       .  S
C700        H704   1.082       .  S
C705        C706   1.408       .  A
C705        C710   1.398       .  A
C705        H715   1.083       .  S
C706        C711   1.487       .  S
C706        C707   1.404       .  A
C707        C708   1.399       .  A
C707        H712   1.082       .  S
C708        C709   1.405       .  A
C708        H713   1.083       .  S
C709        C710   1.403       .  A
C710        H714   1.083       .  S
C711        C716   1.403       .  A
C711        C720   1.410       .  A
C716        C717   1.393       .  A
C716        H721   1.083       .  S
C717        C718   1.405       .  A
C717        H722   1.084       .  S
C718        C719   1.403       .  A
C719        C720   1.403       .  A
C719        H723   1.083       .  S
C720        H724   1.083       .  S
C725        C726   1.411       .  A
C725        C730   1.407       .  A
C725        H735   1.082       .  S
C726        C731   1.490       .  S
C726        C727   1.402       .  A
C727        C728   1.390       .  A
C727        H732   1.083       .  S
C728        C729   1.408       .  A
C728        H733   1.083       .  S
C729        C730   1.406       .  A
C730        H734   1.083       .  S
C731        C736   1.405       .  A
C731        C740   1.409       .  A
C736        C737   1.400       .  A
C736        H741   1.082       .  S
C737        C738   1.406       .  A
C737        H742   1.083       .  S
C738        C739   1.402       .  A
C739        C740   1.398       .  A
C739        H743   1.083       .  S
C740        H744   1.083       .  S
C745        C746   1.406       .  A
C745        C750   1.402       .  A
C745        H755   1.083       .  S
C746        C751   1.491       .  S
C746        C747   1.407       .  A
C747        C748   1.399       .  A
C747        H752   1.083       .  S
C748        C749   1.404       .  A
C748        H753   1.083       .  S
C749        C750   1.407       .  A
C750        H754   1.083       .  S
C751        C756   1.407       .  A
C751        C760   1.405       .  A
C756        C757   1.403       .  A
C756        H761   1.083       .  S
C757        C758   1.408       .  A
C757        H762   1.083       .  S
C758        C759   1.408       .  A
C759        C760   1.398       .  A
C759        H763   1.083       .  S
C760        H764   1.083       .  S
C765        C766   1.404       .  A
C765        C770   1.399       .  A
C765        H775   1.083       .  S
C766        C771   1.488       .  S
C766        C767   1.406       .  A
C767        C768   1.401       .  A
C767        H772   1.082       .  S
C768        C769   1.406       .  A
C768        H773   1.083       .  S
C769        C770   1.408       .  A
C770        H774   1.083       .  S
C771        C776   1.406       .  A
C771        C780   1.406       .  A
C776        C777   1.400       .  A
C776        H781   1.083       .  S
C777        C778   1.406       .  A
C777        H782   1.083       .  S
C778        C779   1.405       .  A
C779        C780   1.401       .  A
C779        H783   1.082       .  S
C780        H784   1.083       .  S
C785        C786   1.411       .  A
C785        C790   1.403       .  A
C785        H795   1.082       .  S
C786        C791   1.495       .  S
C786        C787   1.407       .  A
C787        C788   1.394       .  A
C787        H792   1.081       .  S
C788        C789   1.403       .  A
C788        H793   1.083       .  S
C789        C790   1.404       .  A
C790        H794   1.083       .  S
C791        C796   1.409       .  A
C791        C800   1.410       .  A
C796        C797   1.401       .  A
C796        H801   1.083       .  S
C797        C798   1.404       .  A
C797        H802   1.083       .  S
C798        C799   1.401       .  A
C799        C800   1.397       .  A
C799        H803   1.083       .  S
C800        H804   1.082       .  S
C805        C806   1.405       .  A
C805        C810   1.395       .  A
C805        H815   1.083       .  S
C806        C811   1.486       .  S
C806        C807   1.407       .  A
C807        C808   1.400       .  A
C807        H812   1.083       .  S
C808        C809   1.407       .  A
C808        H813   1.083       .  S
C809        C810   1.406       .  A
C810        H814   1.083       .  S
C811        C816   1.407       .  A
C811        C820   1.406       .  A
C816        C817   1.395       .  A
C816        H821   1.083       .  S
C817        C818   1.402       .  A
C817        H822   1.083       .  S
C818        C819   1.404       .  A
C819        C820   1.399       .  A
C819        H823   1.083       .  S
C820        H824   1.083       .  S
C825        C826   1.408       .  A
C825        C830   1.396       .  A
C825        H835   1.080       .  S
C826        C831   1.497   1_465  S
C826        C827   1.410   1_565  A
C827        C828   1.398       .  A
C827        H832   1.082       .  S
C828        C829   1.404   1_545  A
C828        H833   1.083       .  S
C829        C830   1.405       .  A
C830        H834   1.083       .  S
C831        C836   1.409       .  A
C831        C840   1.410   1_545  A
C836        C837   1.394       .  A
C836        H841   1.081       .  S
C837        C838   1.403       .  A
C837        H842   1.083       .  S
C838        C839   1.405   1_545  A
C839        C840   1.400       .  A
C839        H843   1.083       .  S
C840        H844   1.082       .  S
C845        C846   1.406   1_455  A
C845        C850   1.397       .  A
C845        H855   1.082       .  S
C846        C851   1.497       .  S
C846       C1951   1.410   1_554  A
C847        C848   1.403       .  A
C847       C1950   1.410       .  A
C847        H852   1.082       .  S
C848       C1953   1.405       .  A
C848        H853   1.083       .  S
C849        C850   1.407   1_655  A
C849       C1952   1.405   1_554  A
C850        H854   1.083       .  S
C851        C856   1.407       .  A
C851       C1964   1.410   1_654  A
C856        C857   1.399       .  A
C856        H861   1.082       .  S
C857        C858   1.406       .  A
C857        H862   1.083       .  S
C858       C1963   1.406   1_654  A
C859        C860   1.402       .  A
C859       C1962   1.406   1_455  A
C859        H863   1.083       .  S
C860       C1955   1.410   1_455  A
C860        H864   1.082       .  S
C865        C866   1.407       .  A
C865        C870   1.401       .  A
C865        H875   1.082       .  S
C866        C871   1.495       .  S
C866        C867   1.410       .  A
C867        C868   1.400       .  A
C867        H872   1.083       .  S
C868        C869   1.402       .  A
C868        H873   1.083       .  S
C869        C870   1.405       .  A
C870        H874   1.083       .  S
C871        C876   1.411       .  A
C871        C880   1.404       .  A
C876        C877   1.407       .  A
C876        H881   1.082       .  S
C877        C878   1.406       .  A
C877        H882   1.083       .  S
C878        C879   1.409       .  A
C879        C880   1.394       .  A
C879        H883   1.083       .  S
C880        H884   1.083       .  S
C885        C886   1.407       .  A
C885        C890   1.395       .  A
C885        H895   1.084       .  S
C886        C891   1.487       .  S
C886        C887   1.406       .  A
C887        C888   1.402       .  A
C887        H892   1.082       .  S
C888        C889   1.407       .  A
C888        H893   1.084       .  S
C889        C890   1.402       .  A
C890        H894   1.082       .  S
C891        C896   1.404       .  A
C891        C900   1.408       .  A
C896        C897   1.393       .  A
C896        H901   1.082       .  S
C897        C898   1.403       .  A
C897        H902   1.084       .  S
C898        C899   1.406       .  A
C899        C900   1.403       .  A
C899       H2007   1.083       .  S
C900        H904   1.083       .  S
H903       C2003   1.083       .  S
C905        C906   1.410       .  A
C905        C910   1.404       .  A
C905        H915   1.083       .  S
C906        C911   1.490       .  S
C906        C907   1.403       .  A
C907        C908   1.391       .  A
C907        H912   1.083       .  S
C908        C909   1.408       .  A
C908        H913   1.083       .  S
C909        C910   1.406       .  A
C910        H914   1.083       .  S
C911        C916   1.406       .  A
C911        C920   1.409       .  A
C916        C917   1.399       .  A
C916        H921   1.083       .  S
C917        C918   1.405       .  A
C917        H922   1.083       .  S
C918        C919   1.401       .  A
C919        C920   1.397       .  A
C919        H923   1.083       .  S
C920        H924   1.082       .  S
C925        C926   1.410       .  A
C925        C930   1.400       .  A
C925        H935   1.082       .  S
C926        C931   1.491       .  S
C926        C927   1.407       .  A
C927        C928   1.394       .  A
C927        H932   1.082       .  S
C928        C929   1.404       .  A
C928        H933   1.084       .  S
C929        C930   1.402       .  A
C930        H934   1.083       .  S
C931        C936   1.408       .  A
C931        C940   1.409       .  A
C936        C937   1.398       .  A
C936        H941   1.081       .  S
C937        C938   1.402       .  A
C937        H942   1.084       .  S
C938        C939   1.401       .  A
C939        C940   1.396       .  A
C939        H943   1.082       .  S
C940        H944   1.083       .  S
C945        C946   1.406       .  A
C945        C950   1.400       .  A
C945        H955   1.083       .  S
C946        C951   1.480       .  S
C946        C947   1.402       .  A
C947        C948   1.393       .  A
C947        H952   1.083       .  S
C948        C949   1.407       .  A
C948        H953   1.083       .  S
C949        C950   1.406       .  A
C950        H954   1.083       .  S
C951        C956   1.404       .  A
C951        C960   1.405       .  A
C956        C957   1.398       .  A
C956        H961   1.083       .  S
C957        C958   1.405       .  A
C957        H962   1.083       .  S
C958        C959   1.404       .  A
C959        C960   1.396       .  A
C959        H963   1.083       .  S
C960        H964   1.083       .  S
C965        C966   1.404       .  A
C965        C970   1.397       .  A
C965        H975   1.084       .  S
C966        C971   1.486       .  S
C966        C967   1.406       .  A
C967        C968   1.399       .  A
C967        H972   1.082       .  S
C968        C969   1.406       .  A
C968        H973   1.084       .  S
C969        C970   1.408       .  A
C970        H974   1.082       .  S
C971        C976   1.404       .  A
C971        C980   1.407       .  A
C976        C977   1.397       .  A
C976        H981   1.082       .  S
C977        C978   1.405       .  A
C977        H982   1.083       .  S
C978        C979   1.405       .  A
C979        C980   1.400       .  A
C979        H983   1.082       .  S
C980        H984   1.083       .  S
C985        C986   1.406       .  A
C985        C990   1.396       .  A
C985        H995   1.082       .  S
C986        C991   1.484   1_565  S
C986        C987   1.406       .  A
C987        C988   1.394       .  A
C987        H992   1.082       .  S
C988        C989   1.406       .  A
C988        H993   1.083       .  S
C989        C990   1.403       .  A
C990        H994   1.083       .  S
C991        C996   1.406       .  A
C991       C1000   1.406       .  A
C996        C997   1.394       .  A
C996       H1001   1.082       .  S
C997        C998   1.402       .  A
C997       H1002   1.083       .  S
C998        C999   1.405       .  A
C999       C1000   1.397       .  A
C999       H1003   1.083       .  S
C1000      H1004   1.083       .  S
C1005      C1006   1.407       .  A
C1005      C1010   1.402       .  A
C1005      H1015   1.083       .  S
C1006      C1011   1.480       .  S
C1006      C1007   1.403       .  A
C1007      C1008   1.392       .  A
C1007      H1012   1.084       .  S
C1008      C1009   1.404       .  A
C1008      H1013   1.083       .  S
C1009      C1010   1.405       .  A
C1010      H1014   1.084       .  S
C1011      C1016   1.404       .  A
C1011      C1020   1.406       .  A
C1016      C1017   1.400       .  A
C1016      H1021   1.083       .  S
C1017      C1018   1.407       .  A
C1017      H1022   1.083       .  S
C1018      C1019   1.402       .  A
C1019      C1020   1.394       .  A
C1019      H1023   1.083       .  S
C1020      H1024   1.083       .  S
C1025      C1026   1.406       .  A
C1025      C1030   1.402       .  A
C1025      H1035   1.083       .  S
C1026      C1031   1.485       .  S
C1026      C1027   1.403       .  A
C1027      C1028   1.395       .  A
C1027      H1032   1.083       .  S
C1028      C1029   1.407       .  A
C1028      H1033   1.083       .  S
C1029      C1030   1.407       .  A
C1030      H1034   1.083       .  S
C1031      C1036   1.405       .  A
C1031      C1040   1.406       .  A
C1036      C1037   1.400       .  A
C1036      H1041   1.083       .  S
C1037      C1038   1.406       .  A
C1037      H1042   1.083       .  S
C1038      C1039   1.403       .  A
C1039      C1040   1.397       .  A
C1039      H1043   1.083       .  S
C1040      H1044   1.083       .  S
C1045      C1046   1.406       .  A
C1045      C1050   1.400       .  A
C1045      H1055   1.082       .  S
C1046      C1051   1.495   1_655  S
C1046      C1047   1.409   1_565  A
C1047      C1048   1.400       .  A
C1047      H1052   1.082       .  S
C1048      C1049   1.404   1_545  A
C1048      H1053   1.083       .  S
C1049      C1050   1.407       .  A
C1050      H1054   1.083       .  S
C1051      C1056   1.409       .  A
C1051      C1060   1.406   1_565  A
C1056      C1057   1.401       .  A
C1056      H1061   1.082       .  S
C1057      C1058   1.405       .  A
C1057      H1062   1.083       .  S
C1058      C1059   1.406   1_565  A
C1059      C1060   1.397       .  A
C1059      H1063   1.083       .  S
C1060      H1064   1.082       .  S
C1065      C1066   1.404       .  A
C1065      C1070   1.390       .  A
C1065      H1075   1.082       .  S
C1066      C1071   1.495       .  S
C1066      C1067   1.412       .  A
C1067      C1068   1.407       .  A
C1067      H1072   1.082       .  S
C1068      C1069   1.406       .  A
C1068      H1073   1.083       .  S
C1069      C1070   1.407       .  A
C1070      H1074   1.083       .  S
C1071      C1076   1.410       .  A
C1071      C1080   1.408       .  A
C1076      C1077   1.396       .  A
C1076      H1081   1.082       .  S
C1077      C1078   1.400       .  A
C1077      H1082   1.083       .  S
C1078      C1079   1.405       .  A
C1079      C1080   1.402       .  A
C1079      H1083   1.083       .  S
C1080      H1084   1.082       .  S
C1085      C1086   1.404       .  A
C1085      C1090   1.392       .  A
C1085      H1095   1.083       .  S
C1086      C1091   1.486       .  S
C1086      C1087   1.409       .  A
C1087      C1088   1.402       .  A
C1087      H1092   1.082       .  S
C1088      C1089   1.404       .  A
C1088      H1093   1.083       .  S
C1089      C1090   1.404       .  A
C1090      H1094   1.083       .  S
C1091      C1096   1.408       .  A
C1091      C1100   1.405       .  A
C1096      C1097   1.395       .  A
C1096      H1101   1.083       .  S
C1097      C1098   1.401       .  A
C1097      H1102   1.083       .  S
C1098      C1099   1.405       .  A
C1099      C1100   1.399       .  A
C1099      H1103   1.083       .  S
C1100      H1104   1.082       .  S
C1105      N1106   1.369   1_565  A
C1105      N1110   1.364       .  A
C1105      C2153   1.488       .  S
N1106      C1107   1.363       .  A
C1107      N1108   1.352   1_545  A
C1107      C2173   1.488       .  S
N1108      C1109   1.350       .  A
C1109      N1110   1.357       .  A
C1109      C2193   1.475       .  S
In1111     O1113   2.241       .  S
In1111     O1114   2.263       .  S
In1111     O1122   2.246       .  S
In1111     O1116   2.247       .  S
C1112      C2122   1.474       .  S
C1112      O1118   1.263       .  A
C1112      O1120   1.261       .  A
O1113      C1121   1.256       .  A
O1114      C1121   1.259       .  A
C1115      C2142   1.479       .  S
C1115      O1122   1.262       .  A
C1115      O1116   1.263       .  A
C1117      C1273   1.460       .  S
C1117      O1119   1.259       .  A
C1117      O1123   1.257       .  A
C1121      C1218   1.462       .  S
C1124      N1125   1.361       .  A
C1124      N1129   1.356       .  A
C1124      C2053   1.482       .  S
N1125      C1126   1.363       .  A
C1126      N1127   1.359       .  A
C1126      C2073   1.485       .  S
N1127      C1128   1.356       .  A
C1128      N1129   1.354       .  A
C1128      C2093   1.477       .  S
C1130      N1131   1.359       .  A
C1130      N1135   1.362       .  A
C1130      C2133   1.484       .  S
N1131      C1132   1.356       .  A
C1132      N1133   1.354       .  A
C1132      C2102   1.475       .  S
N1133      C1134   1.356       .  A
C1134      N1135   1.362       .  A
C1134      C2033   1.476       .  S
In1136     O1147   2.235       .  S
In1136     O1141   2.252       .  S
In1136     O1144   2.258       .  S
In1136     O1148   2.229       .  S
C1137      C2022   1.476       .  S
C1137      O1143   1.261       .  A
C1137      O1145   1.256       .  A
O1138      C1146   1.257       .  A
O1139      C1146   1.259       .  A
C1140      C2082   1.479       .  S
C1140      O1147   1.263       .  A
C1140      O1141   1.265       .  A
C1142      C1235   1.463       .  S
C1142      O1144   1.265       .  A
C1142      O1148   1.259       .  A
C1146      C1320   1.468       .  S
In1149     O1151   2.238   1_554  S
In1149     O1152   2.259   1_554  S
In1149     O1160   2.238   1_554  S
In1149     O1154   2.240   1_554  S
C1150      C2062   1.475       .  S
C1150      O1156   1.262       .  A
C1150      O1158   1.262       .  A
O1151      C1159   1.258       .  A
O1152      C1159   1.259       .  A
C1153      C2202   1.474       .  S
C1153      O1160   1.261       .  A
C1153      O1154   1.263       .  A
C1155      C1244   1.461       .  S
C1155      O1157   1.260       .  A
C1155      O1161   1.257       .  A
C1159      C1311   1.462       .  S
In1162     O1173   2.246   1_554  S
In1162     O1167   2.244   1_554  S
In1162     O1170   2.260   1_554  S
In1162     O1174   2.224   1_554  S
C1163      C2042   1.472       .  S
C1163      O1169   1.261       .  A
C1163      O1171   1.260       .  A
O1164      C1172   1.256       .  A
O1165      C1172   1.262       .  A
C1166      C2182   1.476       .  S
C1166      O1173   1.261       .  A
C1166      O1167   1.263       .  A
C1168      C1298   1.461       .  S
C1168      O1170   1.263       .  A
C1168      O1174   1.259       .  A
C1172      C1205   1.461       .  S
C1175      N1176   1.363   1_565  A
C1175      N1180   1.367       .  A
C1175      C2162   1.485       .  S
N1176      C1177   1.356       .  A
C1177      N1178   1.351       .  A
C1177      C2113   1.474       .  S
N1178      C1179   1.353   1_545  A
C1179      N1180   1.363       .  A
C1179      C2013   1.486       .  S
C1181      N1182   1.363   1_655  A
C1181      N1186   1.368       .  A
C1181      C1953   1.488       .  S
N1182      C1183   1.356       .  A
C1183      N1184   1.352       .  A
C1183      C2002   1.478       .  S
N1184      C1185   1.355   1_455  A
C1185      N1186   1.365       .  A
C1185      C1982   1.491       .  S
C1187      N1188   1.360       .  A
C1187      N1192   1.362   1_565  A
C1187      C1913   1.483       .  S
N1188      C1189   1.357   1_565  A
C1189      N1190   1.356       .  A
C1189      C1942   1.482       .  S
N1190      C1191   1.357       .  A
C1191      N1192   1.360       .  A
C1191      C1893   1.478       .  S
C1193      N1194   1.364   1_545  A
C1193      N1198   1.361       .  A
C1193      C1862   1.490       .  S
N1194      C1195   1.363       .  A
C1195      N1196   1.357       .  A
C1195      C1873   1.486       .  S
N1196      C1197   1.356       .  A
C1197      N1198   1.358   1_565  A
C1197      C1933   1.484       .  S
In1199     O1201   2.223       .  S
In1199     O1202   2.270       .  S
In1199     O1210   2.246       .  S
In1199     O1204   2.263       .  S
In1199     O1206   2.248       .  S
In1199     O1207   2.269       .  S
In1199     O1208   2.248       .  S
In1199     O1211   2.222       .  S
C1200      C1902   1.476       .  S
C1200      O1206   1.263       .  A
C1200      O1208   1.261       .  A
O1201      C1209   1.258       .  A
O1202      C1209   1.263       .  A
C1203      C1973   1.480       .  S
C1203      O1210   1.259       .  A
C1203      O1204   1.263       .  A
C1205      O1207   1.262       .  A
C1205      O1211   1.257       .  A
C1209      C1370   1.464       .  S
In1212     O1214   2.248       .  S
In1212     O1215   2.264       .  S
In1212     O1223   2.251       .  S
In1212     O1217   2.255       .  S
In1212     O1219   2.245       .  S
In1212     O1220   2.256       .  S
In1212     O1221   2.250       .  S
In1212     O1224   2.237       .  S
C1213      C1993   1.479       .  S
C1213      O1219   1.263       .  A
C1213      O1221   1.261       .  A
O1214      C1222   1.257       .  A
O1215      C1222   1.259       .  A
C1216      C1853   1.483       .  S
C1216      O1223   1.261       .  A
C1216      O1217   1.263       .  A
C1218      O1220   1.261       .  A
C1218      O1224   1.259       .  A
C1222      C1361   1.465       .  S
In1225     O1227   2.250       .  S
In1225     O1228   2.264       .  S
In1225     O1236   2.256       .  S
In1225     O1230   2.265       .  S
In1225     O1232   2.260       .  S
In1225     O1233   2.270       .  S
In1225     O1234   2.243       .  S
In1225     O1237   2.226       .  S
C1226      C1842   1.479       .  S
C1226      O1232   1.263       .  A
C1226      O1234   1.259       .  A
O1227      C1235   1.257       .  A
O1228      C1235   1.255       .  A
C1229      C1882   1.483       .  S
C1229      O1236   1.259       .  A
C1229      O1230   1.261       .  A
C1231      C1396   1.466       .  S
C1231      O1233   1.264       .  A
C1231      O1237   1.259       .  A
In1238     O1240   2.235       .  S
In1238     O1241   2.254       .  S
In1238     O1249   2.241       .  S
In1238     O1243   2.237       .  S
In1238     O1245   2.248       .  S
In1238     O1246   2.259       .  S
In1238     O1247   2.239       .  S
In1238     O1250   2.238       .  S
C1239      C1813   1.478       .  S
C1239      O1245   1.263       .  A
C1239      O1247   1.262       .  A
O1240      C1248   1.256       .  A
O1241      C1248   1.259       .  A
C1242      C1922   1.473       .  S
C1242      O1249   1.261       .  A
C1242      O1243   1.262       .  A
C1244      O1246   1.260       .  A
C1244      O1250   1.258       .  A
C1248      C1387   1.458       .  S
C1251      N1252   1.369   1_655  A
C1251      N1256   1.366       .  A
C1251      C1962   1.489       .  S
N1252      C1253   1.363       .  A
C1253      N1254   1.352   1_455  A
C1253      C1833   1.487       .  S
N1254      C1255   1.349       .  A
C1255      N1256   1.358       .  A
C1255      C1822   1.477       .  S
C1257      N1258   1.365       .  A
C1257      N1262   1.367       .  A
C1257      C1753   1.487       .  S
N1258      C1259   1.359       .  A
C1259      N1260   1.352       .  A
C1259      C1773   1.477       .  S
N1260      C1261   1.353       .  A
C1261      N1262   1.361       .  A
C1261      C1802   1.487       .  S
In1263     O1265   2.235       .  S
In1263     O1266   2.254       .  S
In1263     O1274   2.246       .  S
In1263     O1268   2.243       .  S
In1263     O1270   2.235       .  S
In1263     O1271   2.263       .  S
In1263     O1272   2.252       .  S
In1263     O1275   2.237       .  S
C1264      C1782   1.476       .  S
C1264      O1270   1.262       .  A
C1264      O1272   1.261       .  A
O1265      C1273   1.257       .  A
O1266      C1273   1.261       .  A
C1267      C1733   1.479       .  S
C1267      O1274   1.262       .  A
C1267      O1268   1.263       .  A
C1269      C1357   1.463       .  S
C1269      O1271   1.260       .  A
C1269      O1275   1.257       .  A
C1276      N1277   1.358       .  A
C1276      N1281   1.365       .  A
C1276      C1742   1.488       .  S
N1277      C1278   1.354       .  A
C1278      N1279   1.356       .  A
C1278      C1713   1.480       .  S
N1279      C1280   1.359       .  A
C1280      N1281   1.364       .  A
C1280      C1693   1.480       .  S
C1282      N1283   1.357       .  A
C1282      N1287   1.365       .  A
N1283      C1284   1.355       .  A
C1284      N1285   1.356       .  A
C1284      C1722   1.479       .  S
N1285      C1286   1.360       .  A
C1286      N1287   1.365       .  A
In1288     O1290   2.227       .  S
In1288     O1291   2.266       .  S
In1288     O1299   2.240       .  S
In1288     O1293   2.265       .  S
In1288     O1295   2.272       .  S
In1288     O1296   2.267       .  S
In1288     O1297   2.246       .  S
In1288     O1300   2.226       .  S
C1289      C1682   1.483       .  S
C1289      O1295   1.264       .  A
C1289      O1297   1.260       .  A
O1290      C1298   1.257       .  A
O1291      C1298   1.261       .  A
C1292      C1793   1.480       .  S
C1292      O1299   1.258       .  A
C1292      O1293   1.264       .  A
C1294      C1374   1.462       .  S
C1294      O1296   1.261       .  A
C1294      O1300   1.258       .  A
In1301     O1303   2.234       .  S
In1301     O1304   2.262       .  S
In1301     O1312   2.247       .  S
In1301     O1306   2.247       .  S
In1301     O1308   2.241       .  S
In1301     O1309   2.266       .  S
In1301     O1310   2.238       .  S
In1301     O1313   2.233       .  S
C1302      C1642   1.476       .  S
C1302      O1308   1.263       .  A
C1302      O1310   1.261       .  A
O1303      C1311   1.257       .  A
O1304      C1311   1.262       .  A
C1305      C1653   1.480       .  S
C1305      O1312   1.262       .  A
C1305      O1306   1.262       .  A
C1307      C1383   1.462       .  S
C1307      O1309   1.261       .  A
C1307      O1313   1.257       .  A
In1314     O1316   2.235       .  S
In1314     O1317   2.281       .  S
In1314     O1325   2.249       .  S
In1314     O1319   2.260       .  S
In1314     O1321   2.261       .  S
In1314     O1322   2.273       .  S
In1314     O1323   2.242       .  S
In1314     O1326   2.231       .  S
C1315      C1613   1.478       .  S
C1315      O1321   1.263       .  A
C1315      O1323   1.259       .  A
O1316      C1324   1.258       .  A
O1317      C1324   1.263       .  A
C1318      C1702   1.481       .  S
C1318      O1325   1.260       .  A
C1318      O1319   1.263       .  A
C1320      O1322   1.264       .  A
C1320      O1326   1.258       .  A
C1324      C1400   1.471       .  S
C1327      N1328   1.366       .  A
C1327      N1332   1.365       .  A
C1327      C1762   1.487       .  S
N1328      C1329   1.361       .  A
C1329      N1330   1.352       .  A
C1329      C1633   1.476       .  S
N1330      C1331   1.352       .  A
C1331      N1332   1.360       .  A
C1331      C1622   1.485       .  S
C1333      N1334   1.368       .  A
C1333      N1338   1.368       .  A
C1333      C1553   1.492       .  S
N1334      C1335   1.361       .  A
C1335      N1336   1.352       .  A
C1335      C1582   1.485       .  S
N1336      C1337   1.352       .  A
C1337      N1338   1.361       .  A
C1337      C1593   1.482       .  S
C1339      N1340   1.359       .  A
C1339      N1344   1.361       .  A
C1339      C1493   1.477       .  S
N1340      C1341   1.357       .  A
C1341      N1342   1.357   1_655  A
C1341      C1542   1.485       .  S
N1342      C1343   1.360       .  A
C1343      N1344   1.363   1_455  A
C1343      C1513   1.487       .  S
C1345      N1346   1.362       .  A
C1345      N1350   1.365   1_655  A
C1345      C1453   1.493       .  S
N1346      C1347   1.358   1_655  A
C1347      N1348   1.357       .  A
C1347      C1533   1.486       .  S
N1348      C1349   1.358       .  A
C1349      N1350   1.364       .  A
C1349      C1482   1.484       .  S
In1351     O1353   2.244       .  S
In1351     O1354   2.262       .  S
In1351     O1362   2.251       .  S
In1351     O1356   2.247       .  S
In1351     O1358   2.252       .  S
In1351     O1359   2.264       .  S
In1351     O1360   2.247       .  S
In1351     O1363   2.240       .  S
C1352      C1522   1.480       .  S
C1352      O1358   1.263       .  A
C1352      O1360   1.261       .  A
O1353      C1361   1.258       .  A
O1354      C1361   1.260       .  A
C1355      C1602   1.481       .  S
C1355      O1362   1.261       .  A
C1355      O1356   1.263       .  A
C1357      O1359   1.260       .  A
C1357      O1363   1.257       .  A
In1364     O1366   2.224       .  S
In1364     O1367   2.274       .  S
In1364     O1375   2.242       .  S
In1364     O1369   2.250       .  S
In1364     O1371   2.241       .  S
In1364     O1372   2.277       .  S
In1364     O1373   2.250       .  S
In1364     O1376   2.230       .  S
C1365      C1502   1.476       .  S
C1365      O1371   1.262       .  A
C1365      O1373   1.262       .  A
O1366      C1374   1.255       .  A
O1367      C1374   1.262       .  A
C1368      C1442   1.478       .  S
C1368      O1375   1.261       .  A
C1368      O1369   1.263       .  A
C1370      O1372   1.261       .  A
C1370      O1376   1.256       .  A
In1377     O1379   2.234       .  S
In1377     O1380   2.251       .  S
In1377     O1388   2.251       .  S
In1377     O1382   2.251       .  S
In1377     O1384   2.253       .  S
In1377     O1385   2.267       .  S
In1377     O1386   2.256       .  S
In1377     O1389   2.236       .  S
C1378      C1462   1.484       .  S
C1378      O1384   1.263       .  A
C1378      O1386   1.261       .  A
O1379      C1387   1.259       .  A
O1380      C1387   1.260       .  A
C1381      C1422   1.481       .  S
C1381      O1388   1.261       .  A
C1381      O1382   1.264       .  A
C1383      O1385   1.259       .  A
C1383      O1389   1.256       .  A
In1390     O1392   2.236       .  S
In1390     O1393   2.285       .  S
In1390     O1401   2.249       .  S
In1390     O1395   2.251       .  S
In1390     O1397   2.249       .  S
In1390     O1398   2.273       .  S
In1390     O1399   2.255       .  S
In1390     O1402   2.228       .  S
C1391      C1473   1.480       .  S
C1391      O1397   1.262       .  A
C1391      O1399   1.261       .  A
O1392      C1400   1.256       .  A
O1393      C1400   1.262       .  A
C1394      C1573   1.479       .  S
C1394      O1401   1.261       .  A
C1394      O1395   1.263       .  A
C1396      O1398   1.263       .  A
C1396      O1402   1.257       .  A
C1403      N1404   1.366       .  A
C1403      N1408   1.366       .  A
C1403      C1562   1.490       .  S
N1404      C1405   1.360       .  A
C1405      N1406   1.353       .  A
C1405      C1433   1.481       .  S
N1406      C1407   1.353       .  A
C1407      N1408   1.361       .  A
C1407      C1413   1.481       .  S
C1409      C1410   1.405       .  A
C1409      C1414   1.395       .  A
C1409      H1419   1.083       .  S
C1410      C1415   1.489       .  S
C1410      C1411   1.409       .  A
C1411      C1412   1.404       .  A
C1411      H1416   1.083       .  S
C1412      C1413   1.405       .  A
C1412      H1417   1.083       .  S
C1413      C1414   1.405       .  A
C1414      H1418   1.083       .  S
C1415      C1420   1.408       .  A
C1415      C1424   1.406       .  A
C1420      C1421   1.397       .  A
C1420      H1425   1.083       .  S
C1421      C1422   1.403       .  A
C1421      H1426   1.082       .  S
C1422      C1423   1.407       .  A
C1423      C1424   1.402       .  A
C1423      H1427   1.084       .  S
C1424      H1428   1.082       .  S
C1429      C1430   1.403       .  A
C1429      C1434   1.393       .  A
C1429      H1439   1.083       .  S
C1430      C1435   1.488       .  S
C1430      C1431   1.409       .  A
C1431      C1432   1.404       .  A
C1431      H1436   1.083       .  S
C1432      C1433   1.404       .  A
C1432      H1437   1.083       .  S
C1433      C1434   1.406       .  A
C1434      H1438   1.083       .  S
C1435      C1440   1.408       .  A
C1435      C1444   1.405       .  A
C1440      C1441   1.398       .  A
C1440      H1445   1.084       .  S
C1441      C1442   1.403       .  A
C1441      H1446   1.082       .  S
C1442      C1443   1.405       .  A
C1443      C1444   1.400       .  A
C1443      H1447   1.084       .  S
C1444      H1448   1.082       .  S
C1449      C1450   1.405       .  A
C1449      C1454   1.398       .  A
C1449      H1459   1.083       .  S
C1450      C1455   1.493       .  S
C1450      C1451   1.408       .  A
C1451      C1452   1.405       .  A
C1451      H1456   1.083       .  S
C1452      C1453   1.409       .  A
C1452      H1457   1.083       .  S
C1453      C1454   1.408       .  A
C1454      H1458   1.083       .  S
C1455      C1460   1.407       .  A
C1455      C1464   1.407       .  A
C1460      C1461   1.399       .  A
C1460      H1465   1.083       .  S
C1461      C1462   1.404       .  A
C1461      H1466   1.082       .  S
C1462      C1463   1.407       .  A
C1463      C1464   1.404       .  A
C1463      H1467   1.084       .  S
C1464      H1468   1.083       .  S
C1469      C1470   1.411       .  A
C1469      C1474   1.402       .  A
C1469      H1479   1.082       .  S
C1470      C1475   1.503       .  S
C1470      C1471   1.411       .  A
C1471      C1472   1.398       .  A
C1471      H1476   1.081       .  S
C1472      C1473   1.401       .  A
C1472      H1477   1.083       .  S
C1473      C1474   1.404       .  A
C1474      H1478   1.083       .  S
C1475      C1480   1.413       .  A
C1475      C1484   1.409       .  A
C1480      C1481   1.405       .  A
C1480      H1485   1.082       .  S
C1481      C1482   1.404       .  A
C1481      H1486   1.083       .  S
C1482      C1483   1.404       .  A
C1483      C1484   1.397       .  A
C1483      H1487   1.084       .  S
C1484      H1488   1.081       .  S
C1489      C1490   1.411       .  A
C1489      C1494   1.404       .  A
C1489      H1499   1.083       .  S
C1490      C1495   1.495       .  S
C1490      C1491   1.408       .  A
C1491      C1492   1.394       .  A
C1491      H1496   1.081       .  S
C1492      C1493   1.402       .  A
C1492      H1497   1.084       .  S
C1493      C1494   1.404       .  A
C1494      H1498   1.083       .  S
C1495      C1500   1.409       .  A
C1495      C1504   1.410       .  A
C1500      C1501   1.401       .  A
C1500      H1505   1.082       .  S
C1501      C1502   1.404       .  A
C1501      H1506   1.083       .  S
C1502      C1503   1.401       .  A
C1503      C1504   1.396       .  A
C1503      H1507   1.083       .  S
C1504      H1508   1.082       .  S
C1509      C1510   1.406       .  A
C1509      C1514   1.402       .  A
C1509      H1519   1.083       .  S
C1510      C1515   1.484       .  S
C1510      C1511   1.402       .  A
C1511      C1512   1.396       .  A
C1511      H1516   1.083       .  S
C1512      C1513   1.408       .  A
C1512      H1517   1.083       .  S
C1513      C1514   1.408       .  A
C1514      H1518   1.083       .  S
C1515      C1520   1.404       .  A
C1515      C1524   1.406       .  A
C1520      C1521   1.400       .  A
C1520      H1525   1.083       .  S
C1521      C1522   1.406       .  A
C1521      H1526   1.084       .  S
C1522      C1523   1.404       .  A
C1523      C1524   1.399       .  A
C1523      H1527   1.082       .  S
C1524      H1528   1.084       .  S
C1529      C1530   1.407       .  A
C1529      C1534   1.396       .  A
C1529      H1539   1.081       .  S
C1530      C1535   1.494       .  S
C1530      C1531   1.408   1_455  A
C1531      C1532   1.401       .  A
C1531      H1536   1.083       .  S
C1532      C1533   1.406   1_655  A
C1532      H1537   1.083       .  S
C1533      C1534   1.405       .  A
C1534      H1538   1.083       .  S
C1535      C1540   1.408   1_455  A
C1535      C1544   1.408       .  A
C1540      C1541   1.398       .  A
C1540      H1545   1.081       .  S
C1541      C1542   1.405       .  A
C1541      H1546   1.083       .  S
C1542      C1543   1.406   1_655  A
C1543      C1544   1.399       .  A
C1543      H1547   1.083       .  S
C1544      H1548   1.083       .  S
C1549      C1550   1.408       .  A
C1549      C1554   1.401       .  A
C1549      H1559   1.083       .  S
C1550      C1555   1.497       .  S
C1550      C1551   1.408       .  A
C1551      C1552   1.402       .  A
C1551      H1556   1.082       .  S
C1552      C1553   1.407       .  A
C1552      H1557   1.083       .  S
C1553      C1554   1.407       .  A
C1554      H1558   1.083       .  S
C1555      C1560   1.409       .  A
C1555      C1564   1.408       .  A
C1560      C1561   1.402       .  A
C1560      H1565   1.082       .  S
C1561      C1562   1.406       .  A
C1561      H1566   1.083       .  S
C1562      C1563   1.406       .  A
C1563      C1564   1.400       .  A
C1563      H1567   1.083       .  S
C1564      H1568   1.082       .  S
C1569      C1570   1.410       .  A
C1569      C1574   1.398       .  A
C1569      H1579   1.083       .  S
C1570      C1575   1.495       .  S
C1570      C1571   1.407       .  A
C1571      C1572   1.401       .  A
C1571      H1576   1.081       .  S
C1572      C1573   1.405       .  A
C1572      H1577   1.083       .  S
C1573      C1574   1.402       .  A
C1574      H1578   1.083       .  S
C1575      C1580   1.405       .  A
C1575      C1584   1.412       .  A
C1580      C1581   1.392       .  A
C1580      H1585   1.082       .  S
C1581      C1582   1.407       .  A
C1581      H1586   1.083       .  S
C1582      C1583   1.405       .  A
C1583      C1584   1.406       .  A
C1583      H1587   1.083       .  S
C1584      H1588   1.082       .  S
C1589      C1590   1.411       .  A
C1589      C1594   1.406       .  A
C1589      H1599   1.082       .  S
C1590      C1595   1.492       .  S
C1590      C1591   1.404       .  A
C1591      C1592   1.393       .  A
C1591      H1596   1.083       .  S
C1592      C1593   1.405       .  A
C1592      H1597   1.083       .  S
C1593      C1594   1.405       .  A
C1594      H1598   1.083       .  S
C1595      C1600   1.406       .  A
C1595      C1604   1.409       .  A
C1600      C1601   1.403       .  A
C1600      H1605   1.082       .  S
C1601      C1602   1.407       .  A
C1601      H1606   1.083       .  S
C1602      C1603   1.402       .  A
C1603      C1604   1.397       .  A
C1603      H1607   1.083       .  S
C1604      H1608   1.083       .  S
C1609      C1610   1.407       .  A
C1609      C1614   1.398       .  A
C1609      H1619   1.082       .  S
C1610      C1615   1.494       .  S
C1610      C1611   1.410       .  A
C1611      C1612   1.400       .  A
C1611      H1616   1.082       .  S
C1612      C1613   1.402       .  A
C1612      H1617   1.083       .  S
C1613      C1614   1.404       .  A
C1614      H1618   1.083       .  S
C1615      C1620   1.411       .  A
C1615      C1624   1.405       .  A
C1620      C1621   1.403       .  A
C1620      H1625   1.082       .  S
C1621      C1622   1.405       .  A
C1621      H1626   1.083       .  S
C1622      C1623   1.407       .  A
C1623      C1624   1.393       .  A
C1623      H1627   1.083       .  S
C1624      H1628   1.082       .  S
C1629      C1630   1.406       .  A
C1629      C1634   1.395       .  A
C1629      H1639   1.083       .  S
C1630      C1635   1.492       .  S
C1630      C1631   1.410       .  A
C1631      C1632   1.402       .  A
C1631      H1636   1.082       .  S
C1632      C1633   1.402       .  A
C1632      H1637   1.083       .  S
C1633      C1634   1.404       .  A
C1634      H1638   1.084       .  S
C1635      C1640   1.409       .  A
C1635      C1644   1.407       .  A
C1640      C1641   1.397       .  A
C1640      H1645   1.083       .  S
C1641      C1642   1.402       .  A
C1641      H1646   1.083       .  S
C1642      C1643   1.404       .  A
C1643      C1644   1.399       .  A
C1643      H1647   1.084       .  S
C1644      H1648   1.081       .  S
C1649      C1650   1.405       .  A
C1649      C1654   1.400       .  A
C1649      H1659   1.083       .  S
C1650      C1655   1.486       .  S
C1650      C1651   1.406       .  A
C1651      C1652   1.399       .  A
C1651      H1656   1.083       .  S
C1652      C1653   1.405       .  A
C1652      H1657   1.083       .  S
C1653      C1654   1.405       .  A
C1654      H1658   1.083       .  S
C1655      C1660   1.406       .  A
C1655      C1664   1.404       .  A
C1660      C1661   1.401       .  A
C1660      H1665   1.083       .  S
C1661      C1662   1.406       .  A
C1661      H1666   1.083       .  S
C1663      H1667   1.083       .  S
C1669      C1670   1.408       .  A
C1669      C1674   1.397       .  A
C1669      H1679   1.081       .  S
C1670      C1675   1.504       .  S
C1670      C1671   1.413       .  A
C1671      C1672   1.405       .  A
C1671      H1676   1.081       .  S
C1672      C1673   1.405       .  A
C1673      C1674   1.406       .  A
C1674      H1678   1.083       .  S
C1675      C1680   1.413       .  A
C1675      C1684   1.410       .  A
C1680      C1681   1.403       .  A
C1680      H1685   1.081       .  S
C1681      C1682   1.402       .  A
C1681      H1686   1.083       .  S
C1682      C1683   1.404       .  A
C1683      C1684   1.400       .  A
C1683      H1687   1.083       .  S
C1684      H1688   1.082       .  S
C1689      C1690   1.407       .  A
C1689      H1699   1.083       .  S
C1690      C1695   1.496       .  S
C1690      C1691   1.411       .  A
C1691      C1692   1.404       .  A
C1691      H1696   1.082       .  S
C1692      H1697   1.083       .  S
C1693      C1694   1.404       .  A
C1694      H1698   1.083       .  S
C1695      C1700   1.410       .  A
C1695      C1704   1.408       .  A
C1700      C1701   1.400       .  A
C1700      H1705   1.083       .  S
C1701      C1702   1.403       .  A
C1701      H1706   1.083       .  S
C1702      C1703   1.405       .  A
C1703      C1704   1.400       .  A
C1703      H1707   1.084       .  S
C1704      H1708   1.082       .  S
C1709      C1710   1.409       .  A
C1709      C1714   1.397       .  A
C1709      H1719   1.082       .  S
C1710      C1715   1.492       .  S
C1710      C1711   1.407       .  A
C1711      C1712   1.396       .  A
C1711      H1716   1.081       .  S
C1712      C1713   1.405       .  A
C1712      H1717   1.083       .  S
C1713      C1714   1.404       .  A
C1714      H1718   1.083       .  S
C1715      C1720   1.407       .  A
C1715      C1724   1.409       .  A
C1720      C1721   1.393       .  A
C1721      C1722   1.403       .  A
C1722      C1723   1.405       .  A
C1723      C1724   1.400       .  A
C1723      H1727   1.082       .  S
C1724      H1728   1.083       .  S
C1729      C1730   1.407       .  A
C1729      C1734   1.397       .  A
C1729      H1739   1.083       .  S
C1730      C1735   1.486       .  S
C1730      C1731   1.405       .  A
C1731      C1732   1.401       .  A
C1731      H1736   1.083       .  S
C1732      C1733   1.406       .  A
C1732      H1737   1.083       .  S
C1733      C1734   1.404       .  A
C1734      H1738   1.083       .  S
C1735      C1740   1.403       .  A
C1735      C1744   1.407       .  A
C1740      C1741   1.395       .  A
C1740      H1745   1.083       .  S
C1743      C1744   1.403       .  A
C1744      H1748   1.083       .  S
C1749      C1750   1.409       .  A
C1749      C1754   1.400       .  A
C1749      H1759   1.082       .  S
C1750      C1755   1.497   1_545  S
C1750      C1751   1.408       .  A
C1751      C1752   1.399       .  A
C1751      H1756   1.081       .  S
C1752      C1753   1.405       .  A
C1752      H1757   1.083       .  S
C1753      C1754   1.406       .  A
C1754      H1758   1.083       .  S
C1755      C1760   1.408       .  A
C1755      C1764   1.409       .  A
C1760      C1761   1.399       .  A
C1760      H1765   1.082       .  S
C1761      C1762   1.405       .  A
C1761      H1766   1.083       .  S
C1762      C1763   1.406       .  A
C1763      C1764   1.401       .  A
C1763      H1767   1.082       .  S
C1764      H1768   1.082       .  S
C1769      C1770   1.404       .  A
C1769      C1774   1.391       .  A
C1769      H1779   1.083       .  S
C1770      C1775   1.486       .  S
C1770      C1771   1.408       .  A
C1771      C1772   1.404       .  A
C1771      H1776   1.083       .  S
C1772      C1773   1.405       .  A
C1772      H1777   1.083       .  S
C1773      C1774   1.403       .  A
C1774      H1778   1.083       .  S
C1775      C1780   1.407       .  A
C1775      C1784   1.406       .  A
C1780      C1781   1.393       .  A
C1780      H1785   1.083       .  S
C1781      C1782   1.401       .  A
C1781      H1786   1.083       .  S
C1782      C1783   1.407       .  A
C1783      C1784   1.402       .  A
C1783      H1787   1.083       .  S
C1784      H1788   1.082       .  S
C1789      C1790   1.410       .  A
C1789      C1794   1.399       .  A
C1789      H1799   1.082       .  S
C1790      C1795   1.493       .  S
C1790      C1791   1.406       .  A
C1791      C1792   1.400       .  A
C1791      H1796   1.083       .  S
C1792      C1793   1.406       .  A
C1792      H1797   1.083       .  S
C1793      C1794   1.402       .  A
C1794      H1798   1.083       .  S
C1795      C1800   1.404       .  A
C1795      C1804   1.410       .  A
C1800      C1801   1.393       .  A
C1800      H1805   1.083       .  S
C1801      C1802   1.408       .  A
C1801      H1806   1.083       .  S
C1802      C1803   1.406       .  A
C1803      C1804   1.405       .  A
C1803      H1807   1.083       .  S
C1804      H1808   1.082       .  S
C1809      C1810   1.408       .  A
C1809      C1814   1.398       .  A
C1809      H1819   1.083       .  S
C1810      C1815   1.487       .  S
C1810      C1811   1.404       .  A
C1811      C1812   1.399       .  A
C1811      H1816   1.082       .  S
C1812      C1813   1.405       .  A
C1812      H1817   1.083       .  S
C1813      C1814   1.403       .  A
C1814      H1818   1.083       .  S
C1815      C1820   1.403       .  A
C1815      C1824   1.410       .  A
C1820      C1821   1.393       .  A
C1820      H1825   1.083       .  S
C1821      C1822   1.405       .  A
C1821      H1826   1.084       .  S
C1822      C1823   1.403       .  A
C1823      C1824   1.403       .  A
C1823      H1827   1.083       .  S
C1824      H1828   1.083       .  S
C1829      C1830   1.411       .  A
C1829      C1834   1.407       .  A
C1829      H1839   1.082       .  S
C1830      C1835   1.490       .  S
C1830      C1831   1.402       .  A
C1831      C1832   1.390       .  A
C1831      H1836   1.083       .  S
C1832      C1833   1.408       .  A
C1832      H1837   1.083       .  S
C1833      C1834   1.406       .  A
C1834      H1838   1.083       .  S
C1835      C1840   1.405       .  A
C1835      C1844   1.409       .  A
C1840      C1841   1.400       .  A
C1840      H1845   1.082       .  S
C1841      C1842   1.406       .  A
C1841      H1846   1.083       .  S
C1842      C1843   1.402       .  A
C1843      C1844   1.398       .  A
C1843      H1847   1.083       .  S
C1844      H1848   1.083       .  S
C1849      C1850   1.406       .  A
C1849      C1854   1.402       .  A
C1849      H1859   1.083       .  S
C1850      C1855   1.491       .  S
C1850      C1851   1.407       .  A
C1851      C1852   1.399       .  A
C1851      H1856   1.083       .  S
C1852      C1853   1.404       .  A
C1852      H1857   1.083       .  S
C1853      C1854   1.407       .  A
C1854      H1858   1.083       .  S
C1855      C1860   1.407       .  A
C1855      C1864   1.405       .  A
C1860      C1861   1.403       .  A
C1860      H1865   1.083       .  S
C1861      C1862   1.408       .  A
C1861      H1866   1.083       .  S
C1862      C1863   1.408       .  A
C1863      C1864   1.398       .  A
C1863      H1867   1.083       .  S
C1864      H1868   1.083       .  S
C1869      C1870   1.404       .  A
C1869      C1874   1.399       .  A
C1869      H1879   1.083       .  S
C1870      C1875   1.488       .  S
C1870      C1871   1.406       .  A
C1871      C1872   1.401       .  A
C1871      H1876   1.082       .  S
C1872      C1873   1.406       .  A
C1872      H1877   1.083       .  S
C1873      C1874   1.408       .  A
C1874      H1878   1.083       .  S
C1875      C1880   1.406       .  A
C1875      C1884   1.406       .  A
C1880      C1881   1.400       .  A
C1880      H1885   1.083       .  S
C1881      C1882   1.406       .  A
C1881      H1886   1.083       .  S
C1882      C1883   1.405       .  A
C1883      C1884   1.401       .  A
C1883      H1887   1.082       .  S
C1884      H1888   1.083       .  S
C1889      C1890   1.411       .  A
C1889      C1894   1.403       .  A
C1889      H1899   1.082       .  S
C1890      C1895   1.495       .  S
C1890      C1891   1.407       .  A
C1891      C1892   1.394       .  A
C1891      H1896   1.081       .  S
C1892      C1893   1.403       .  A
C1892      H1897   1.083       .  S
C1893      C1894   1.404       .  A
C1894      H1898   1.083       .  S
C1895      C1900   1.409       .  A
C1895      C1904   1.410       .  A
C1900      C1901   1.401       .  A
C1900      H1905   1.083       .  S
C1901      C1902   1.404       .  A
C1901      H1906   1.083       .  S
C1902      C1903   1.401       .  A
C1903      C1904   1.397       .  A
C1903      H1907   1.083       .  S
C1904      H1908   1.082       .  S
C1909      C1910   1.405       .  A
C1909      C1914   1.395       .  A
C1909      H1919   1.083       .  S
C1910      C1915   1.486       .  S
C1910      C1911   1.407       .  A
C1911      C1912   1.400       .  A
C1911      H1916   1.083       .  S
C1912      C1913   1.407       .  A
C1912      H1917   1.083       .  S
C1913      C1914   1.406       .  A
C1914      H1918   1.083       .  S
C1915      C1920   1.407       .  A
C1915      C1924   1.406       .  A
C1920      C1921   1.395       .  A
C1920      H1925   1.083       .  S
C1921      C1922   1.402       .  A
C1921      H1926   1.083       .  S
C1922      C1923   1.404       .  A
C1923      C1924   1.399       .  A
C1923      H1927   1.083       .  S
C1924      H1928   1.083       .  S
C1929      C1930   1.408       .  A
C1929      C1934   1.396       .  A
C1929      H1939   1.080       .  S
C1930      C1935   1.497   1_465  S
C1930      C1931   1.410   1_565  A
C1931      C1932   1.398       .  A
C1931      H1936   1.082       .  S
C1932      C1933   1.404   1_545  A
C1932      H1937   1.083       .  S
C1933      C1934   1.405       .  A
C1934      H1938   1.083       .  S
C1935      C1940   1.409       .  A
C1935      C1944   1.410   1_545  A
C1940      C1941   1.394       .  A
C1940      H1945   1.081       .  S
C1941      C1942   1.403       .  A
C1941      H1946   1.083       .  S
C1942      C1943   1.405   1_545  A
C1943      C1944   1.400       .  A
C1943      H1947   1.083       .  S
C1944      H1948   1.082       .  S
C1949      C1950   1.406   1_455  A
C1949      C1954   1.397       .  A
C1949      H1959   1.082       .  S
C1950      C1955   1.497       .  S
C1951      C1952   1.403       .  A
C1951      H1956   1.082       .  S
C1952      H1957   1.083       .  S
C1953      C1954   1.407   1_655  A
C1954      H1958   1.083       .  S
C1955      C1960   1.407       .  A
C1960      C1961   1.399       .  A
C1960      H1965   1.082       .  S
C1961      C1962   1.406       .  A
C1961      H1966   1.083       .  S
C1963      C1964   1.402       .  A
C1963      H1967   1.083       .  S
C1964      H1968   1.082       .  S
C1969      C1970   1.407       .  A
C1969      C1974   1.401       .  A
C1969      H1979   1.082       .  S
C1970      C1975   1.495       .  S
C1970      C1971   1.410       .  A
C1971      C1972   1.400       .  A
C1971      H1976   1.083       .  S
C1972      C1973   1.402       .  A
C1972      H1977   1.083       .  S
C1973      C1974   1.405       .  A
C1974      H1978   1.083       .  S
C1975      C1980   1.411       .  A
C1975      C1984   1.404       .  A
C1980      C1981   1.407       .  A
C1980      H1985   1.082       .  S
C1981      C1982   1.406       .  A
C1981      H1986   1.083       .  S
C1982      C1983   1.409       .  A
C1983      C1984   1.394       .  A
C1983      H1987   1.083       .  S
C1984      H1988   1.083       .  S
C1989      C1990   1.407       .  A
C1989      C1994   1.395       .  A
C1989      H1999   1.084       .  S
C1990      C1995   1.487       .  S
C1990      C1991   1.406       .  A
C1991      C1992   1.402       .  A
C1991      H1996   1.082       .  S
C1992      C1993   1.407       .  A
C1992      H1997   1.084       .  S
C1993      C1994   1.402       .  A
C1994      H1998   1.082       .  S
C1995      C2000   1.404       .  A
C1995      C2004   1.408       .  A
C2000      C2001   1.393       .  A
C2000      H2005   1.082       .  S
C2001      C2002   1.403       .  A
C2001      H2006   1.084       .  S
C2002      C2003   1.406       .  A
C2003      C2004   1.403       .  A
C2004      H2008   1.083       .  S
C2009      C2010   1.410       .  A
C2009      C2014   1.404       .  A
C2009      H2019   1.083       .  S
C2010      C2015   1.490       .  S
C2010      C2011   1.403       .  A
C2011      C2012   1.391       .  A
C2011      H2016   1.083       .  S
C2012      C2013   1.408       .  A
C2012      H2017   1.083       .  S
C2013      C2014   1.406       .  A
C2014      H2018   1.083       .  S
C2015      C2020   1.406       .  A
C2015      C2024   1.409       .  A
C2020      C2021   1.399       .  A
C2020      H2025   1.083       .  S
C2021      C2022   1.405       .  A
C2021      H2026   1.083       .  S
C2022      C2023   1.401       .  A
C2023      C2024   1.397       .  A
C2023      H2027   1.083       .  S
C2024      H2028   1.082       .  S
C2029      C2030   1.410       .  A
C2029      C2034   1.400       .  A
C2029      H2039   1.082       .  S
C2030      C2035   1.491       .  S
C2030      C2031   1.407       .  A
C2031      C2032   1.394       .  A
C2031      H2036   1.082       .  S
C2032      C2033   1.404       .  A
C2032      H2037   1.084       .  S
C2033      C2034   1.402       .  A
C2034      H2038   1.083       .  S
C2035      C2040   1.408       .  A
C2035      C2044   1.409       .  A
C2040      C2041   1.398       .  A
C2040      H2045   1.081       .  S
C2041      C2042   1.402       .  A
C2041      H2046   1.084       .  S
C2042      C2043   1.401       .  A
C2043      C2044   1.396       .  A
C2043      H2047   1.082       .  S
C2044      H2048   1.083       .  S
C2049      C2050   1.406       .  A
C2049      C2054   1.400       .  A
C2049      H2059   1.083       .  S
C2050      C2055   1.480       .  S
C2050      C2051   1.402       .  A
C2051      C2052   1.393       .  A
C2051      H2056   1.083       .  S
C2052      C2053   1.407       .  A
C2052      H2057   1.083       .  S
C2053      C2054   1.406       .  A
C2054      H2058   1.083       .  S
C2055      C2060   1.404       .  A
C2055      C2064   1.405       .  A
C2060      C2061   1.398       .  A
C2060      H2065   1.083       .  S
C2061      C2062   1.405       .  A
C2061      H2066   1.083       .  S
C2062      C2063   1.404       .  A
C2063      C2064   1.396       .  A
C2063      H2067   1.083       .  S
C2064      H2068   1.083       .  S
C2069      C2070   1.404       .  A
C2069      C2074   1.397       .  A
C2069      H2079   1.084       .  S
C2070      C2075   1.486       .  S
C2070      C2071   1.406       .  A
C2071      C2072   1.399       .  A
C2071      H2076   1.082       .  S
C2072      C2073   1.406       .  A
C2072      H2077   1.084       .  S
C2073      C2074   1.408       .  A
C2074      H2078   1.082       .  S
C2075      C2080   1.404       .  A
C2075      C2084   1.407       .  A
C2080      C2081   1.397       .  A
C2080      H2085   1.082       .  S
C2081      C2082   1.405       .  A
C2081      H2086   1.083       .  S
C2082      C2083   1.405       .  A
C2083      C2084   1.400       .  A
C2083      H2087   1.082       .  S
C2084      H2088   1.083       .  S
C2089      C2090   1.406       .  A
C2089      C2094   1.396       .  A
C2089      H2099   1.082       .  S
C2090      C2095   1.484   1_565  S
C2090      C2091   1.406       .  A
C2091      C2092   1.394       .  A
C2091      H2096   1.082       .  S
C2092      C2093   1.406       .  A
C2092      H2097   1.083       .  S
C2093      C2094   1.403       .  A
C2094      H2098   1.083       .  S
C2095      C2100   1.406       .  A
C2095      C2104   1.406       .  A
C2100      C2101   1.394       .  A
C2100      H2105   1.082       .  S
C2101      C2102   1.402       .  A
C2101      H2106   1.083       .  S
C2102      C2103   1.405       .  A
C2103      C2104   1.397       .  A
C2103      H2107   1.083       .  S
C2104      H2108   1.083       .  S
C2109      C2110   1.407       .  A
C2109      C2114   1.402       .  A
C2109      H2119   1.083       .  S
C2110      C2115   1.480       .  S
C2110      C2111   1.403       .  A
C2111      C2112   1.392       .  A
C2111      H2116   1.084       .  S
C2112      C2113   1.404       .  A
C2112      H2117   1.083       .  S
C2113      C2114   1.405       .  A
C2114      H2118   1.084       .  S
C2115      C2120   1.404       .  A
C2115      C2124   1.406       .  A
C2120      C2121   1.400       .  A
C2120      H2125   1.083       .  S
C2121      C2122   1.407       .  A
C2121      H2126   1.083       .  S
C2122      C2123   1.402       .  A
C2123      C2124   1.394       .  A
C2123      H2127   1.083       .  S
C2124      H2128   1.083       .  S
C2129      C2130   1.406       .  A
C2129      C2134   1.402       .  A
C2129      H2139   1.083       .  S
C2130      C2135   1.485       .  S
C2130      C2131   1.403       .  A
C2131      C2132   1.395       .  A
C2131      H2136   1.083       .  S
C2132      C2133   1.407       .  A
C2132      H2137   1.083       .  S
C2133      C2134   1.407       .  A
C2134      H2138   1.083       .  S
C2135      C2140   1.405       .  A
C2135      C2144   1.406       .  A
C2140      C2141   1.400       .  A
C2140      H2145   1.083       .  S
C2141      C2142   1.406       .  A
C2141      H2146   1.083       .  S
C2142      C2143   1.403       .  A
C2143      C2144   1.397       .  A
C2143      H2147   1.083       .  S
C2144      H2148   1.083       .  S
C2149      C2150   1.406       .  A
C2149      C2154   1.400       .  A
C2149      H2159   1.082       .  S
C2150      C2155   1.495   1_655  S
C2150      C2151   1.409   1_565  A
C2151      C2152   1.400       .  A
C2151      H2156   1.082       .  S
C2152      C2153   1.404   1_545  A
C2152      H2157   1.083       .  S
C2153      C2154   1.407       .  A
C2154      H2158   1.083       .  S
C2155      C2160   1.409       .  A
C2155      C2164   1.406   1_565  A
C2160      C2161   1.401       .  A
C2160      H2165   1.082       .  S
C2161      C2162   1.405       .  A
C2161      H2166   1.083       .  S
C2162      C2163   1.406   1_565  A
C2163      C2164   1.397       .  A
C2163      H2167   1.083       .  S
C2164      H2168   1.082       .  S
C2169      C2170   1.404       .  A
C2169      C2174   1.390       .  A
C2169      H2179   1.082       .  S
C2170      C2175   1.495       .  S
C2170      C2171   1.412       .  A
C2171      C2172   1.407       .  A
C2171      H2176   1.082       .  S
C2172      C2173   1.406       .  A
C2172      H2177   1.083       .  S
C2173      C2174   1.407       .  A
C2174      H2178   1.083       .  S
C2175      C2180   1.410       .  A
C2175      C2184   1.408       .  A
C2180      C2181   1.396       .  A
C2180      H2185   1.082       .  S
C2181      C2182   1.400       .  A
C2181      H2186   1.083       .  S
C2182      C2183   1.405       .  A
C2183      C2184   1.402       .  A
C2183      H2187   1.083       .  S
C2184      H2188   1.082       .  S
C2189      C2190   1.404       .  A
C2189      C2194   1.392       .  A
C2189      H2199   1.083       .  S
C2190      C2195   1.486       .  S
C2190      C2191   1.409       .  A
C2191      C2192   1.402       .  A
C2191      H2196   1.082       .  S
C2192      C2193   1.404       .  A
C2192      H2197   1.083       .  S
C2193      C2194   1.404       .  A
C2194      H2198   1.083       .  S
C2195      C2200   1.408       .  A
C2195      C2204   1.405       .  A
C2200      C2201   1.395       .  A
C2200      H2205   1.083       .  S
C2201      C2202   1.401       .  A
C2201      H2206   1.083       .  S
C2202      C2203   1.405       .  A
C2203      C2204   1.399       .  A
C2203      H2207   1.083       .  S
C2204      H2208   1.082       .  S
