geometry optimzed in LAMMPS
_audit_creation_date              2020-11-30 
_audit_creation_method            'lammps2cif' 
_symmetry_space_group_name_H-M    'P1' 
_symmetry_Int_Tables_number       1 
_symmetry_cell_setting            triclinic 
loop_ 
_symmetry_equiv_pos_as_xyz 
  x,y,z 
_cell_length_a                    31.12391122 
_cell_length_b                    31.126195492158285 
_cell_length_c                    45.053267506160644 
_cell_angle_alpha                 90.12152351281645 
_cell_angle_beta                  90.00375259502347 
_cell_angle_gamma                 120.0570665454911 
loop_ 
_atom_site_label 
_atom_site_type_symbol 
_atom_site_fract_x 
_atom_site_fract_y 
_atom_site_fract_z 
_atom_site_charge 
C1          C  0.34301910  0.13416509  0.23031802     0.81300
N2          N  0.37974329  0.15308882  0.20975753    -0.77000
C3          C  0.39806390  0.20021581  0.19969124     0.83700
N4          N  0.37902140  0.22822640  0.21020552    -0.76900
C5          C  0.34224367  0.20933955  0.23081294     0.83800
N6          N  0.32406341  0.16219502  0.24069799    -0.78700
C7          C  0.06471252  0.40211287  0.28904714     0.81300
N8          N  0.08397967  0.44106094  0.30823396    -0.77000
C9          C  0.13155040  0.46091157  0.31797608     0.83700
N10         N  0.15950223  0.44115125  0.30864310    -0.76900
C11         C  0.14035292  0.40222887  0.28949218     0.83800
N12         N  0.09282720  0.38250546  0.27983033    -0.78700
C13         C  0.59417681  0.13127394  0.22787772     0.81300
N14         N  0.57606987  0.15087667  0.20798328    -0.77000
C15         C  0.60475083  0.19839544  0.19848271     0.83700
N16         N  0.65195449  0.22608205  0.20883771    -0.76900
C17         C  0.67016082  0.20653704  0.22874866     0.83800
N18         N  0.64135303  0.15902478  0.23811510    -0.78700
C19         C  0.67302033  0.46760812  0.22735174     0.81300
N20         N  0.65402396  0.42931554  0.20772164    -0.77000
C21         C  0.60642373  0.40942509  0.19806102     0.83700
N22         N  0.57809327  0.42842207  0.20797202    -0.76900
C23         C  0.59697860  0.46669636  0.22759617     0.83800
N24         N  0.64457271  0.48648892  0.23715206    -0.78700
C25         C  0.39534939  0.73612539  0.28505812     0.81300
N26         N  0.35847956  0.71762820  0.30556698    -0.77000
C27         C  0.34002546  0.67064243  0.31594611     0.83700
N28         N  0.35907018  0.64243855  0.30584706    -0.76900
C29         C  0.39595760  0.66084893  0.28535722     0.83800
N30         N  0.41431465  0.70782992  0.27511798    -0.78700
C31         C  0.14314241  0.73967811  0.28876520     0.81300
N32         N  0.16153370  0.72023916  0.30859271    -0.77000
C33         C  0.13302377  0.67274080  0.31818058     0.83700
N34         N  0.08574478  0.64494250  0.30798830    -0.76900
C35         C  0.06725574  0.66430890  0.28815766     0.83800
N36         N  0.09587952  0.71178449  0.27867958    -0.78700
Fe37       Fe  0.23977702  0.67548154  0.38312110     1.65800
Fe38       Fe  0.12917688  0.56525379  0.38304765     1.73200
Fe39       Fe  0.23943711  0.56502352  0.38267833     1.54400
O40         O  0.28723744  0.60836093  0.34944994    -0.80600
O41         O  0.12445559  0.51652516  0.41565685    -0.78900
O42         O  0.28742996  0.68011670  0.34970240    -0.83100
O43         O  0.28919088  0.68050571  0.41533633    -0.78000
O44         O  0.19484515  0.51586556  0.35028311    -0.79700
O45         O  0.12482728  0.60893091  0.41610148    -0.82500
C46         C  0.30485949  0.65254742  0.42489088     0.98300
C47         C  0.30236935  0.65178173  0.33957931     1.05700
O48         O  0.20278845  0.60190306  0.38294290    -1.11500
O49         O  0.12400626  0.60910859  0.35044012    -0.73900
O50         O  0.19558600  0.68083293  0.35092076    -0.77400
O51         O  0.28915107  0.60892629  0.41513360    -0.78100
C52         C  0.15209780  0.65286880  0.34100731     0.97200
O53         O  0.19684721  0.68029949  0.41654965    -0.76000
O54         O  0.12350329  0.51640218  0.35010516    -0.81200
C55         C  0.15267141  0.50130321  0.42550253     0.99800
C56         C  0.15127886  0.50044956  0.34053837     1.05700
O57         O  0.19627299  0.51684752  0.41578582    -0.76900
C58         C  0.15326676  0.65216158  0.42628624     1.04000
C59         C  0.59536905  0.13308889  0.03636595     0.81300
N60         N  0.64255228  0.16172356  0.02638531    -0.77000
C61         C  0.67078474  0.20896028  0.03647398     0.83700
N62         N  0.65196763  0.22729895  0.05682153    -0.76900
C63         C  0.60475773  0.19877635  0.06691717     0.83800
N64         N  0.57662756  0.15153369  0.05670257    -0.78700
C65         C  0.40091189  0.73911414  0.47735375     0.81300
N66         N  0.42046244  0.71131451  0.48716589    -0.77000
C67         C  0.40163991  0.66390566  0.47742560     0.83700
N68         N  0.36364662  0.64454788  0.45758631    -0.76900
C69         C  0.34399918  0.67228650  0.44768205     0.83800
N70         N  0.36294457  0.71966927  0.45755580    -0.78700
C71         C  0.67233165  0.46399104  0.03714633     0.81300
N72         N  0.64406954  0.48272034  0.02684428    -0.77000
C73         C  0.59653628  0.46357619  0.03632810     0.83700
N74         N  0.57751277  0.42611579  0.05642782    -0.76900
C75         C  0.60566615  0.40724965  0.06683427     0.83800
N76         N  0.65319330  0.42650996  0.05721083    -0.78700
C77         C  0.06799025  0.66065016  0.48014056     0.81300
N78         N  0.09601669  0.70803721  0.49006943    -0.77000
C79         C  0.14319901  0.73679611  0.48008315     0.83700
N80         N  0.16206368  0.71833790  0.45983730    -0.76900
C81         C  0.13413658  0.67097584  0.44977011     0.83800
N82         N  0.08697804  0.64232206  0.45990490    -0.78700
C83         C  0.33781500  0.13259591  0.03804234     0.81300
N84         N  0.37581889  0.15162377  0.05784073    -0.77000
C85         C  0.39520368  0.19903358  0.06778772     0.83700
N86         N  0.37595747  0.22717665  0.05798827    -0.76900
C87         C  0.33792099  0.20824426  0.03820238     0.83800
N88         N  0.31865891  0.16083165  0.02836648    -0.78700
C89         C  0.06675845  0.40563250  0.47816159     0.81300
N90         N  0.08593236  0.44358554  0.45841629    -0.77000
C91         C  0.13327279  0.46264766  0.44849699     0.83700
N92         N  0.16117724  0.44310617  0.45826221    -0.76900
C93         C  0.14209669  0.40512702  0.47799962     0.83800
N94         N  0.09476125  0.38618852  0.48780330    -0.78700
Fe95       Fe  0.49865483  0.19529250  0.13285915     1.65800
Fe96       Fe  0.60935679  0.30534003  0.13298750     1.73200
Fe97       Fe  0.49920402  0.30585871  0.13300546     1.54400
O98         O  0.45000182  0.26209854  0.10038548    -0.80600
O99         O  0.61488807  0.35469322  0.16554056    -0.78900
O100        O  0.44945039  0.19024845  0.10042235    -0.83100
O101        O  0.45092559  0.19104174  0.16608787    -0.78000
O102        O  0.54283892  0.35401736  0.09998214    -0.79700
O103        O  0.61418145  0.26199387  0.16605217    -0.82500
C104        C  0.43578095  0.21928985  0.17607353     0.98300
C105        C  0.43415632  0.21842829  0.09068567     1.05700
O106        O  0.53574736  0.26883904  0.13294481    -1.11500
O107        O  0.61397180  0.26105336  0.10040290    -0.73900
O108        O  0.54167379  0.19001169  0.09966305    -0.77400
O109        O  0.45083921  0.26263890  0.16611385    -0.78100
C110        C  0.58549676  0.21784102  0.09019748     0.97200
O111        O  0.54269310  0.19015337  0.16527918    -0.76000
O112        O  0.61423840  0.35349553  0.09993781    -0.81200
C113        C  0.58692386  0.37031031  0.17526313     0.99800
C114        C  0.58624766  0.36900126  0.09009301     1.05700
O115        O  0.54331487  0.35474469  0.16558726    -0.76900
C116        C  0.58599967  0.21822813  0.17544305     1.04000
C117        C  0.22010059  0.33886601  0.00283495     0.18100
C118        C  0.19540566  0.28526609  0.50165975    -0.11000
C119        C  0.22105139  0.26022533  0.50824805    -0.11900
C120        C  0.27046294  0.28743374  0.01595292     0.19700
C121        C  0.29626346  0.33523949  0.00378580    -0.13900
C122        C  0.27113081  0.36088191  0.99722374    -0.12200
C123        C  0.29603430  0.26076050  0.02278083     0.00600
C124        C  0.31594557  0.23727353  0.02923843    -0.32200
C125        C  0.19419759  0.36275681  0.49332848     0.02000
C126        C  0.17084440  0.38281805  0.48690105    -0.33900
H127        H  0.15575376  0.26414048  0.49771582     0.13100
H128        H  0.20087233  0.22006342  0.50940341     0.12900
H129        H  0.33567859  0.35260689  0.99933764     0.12700
H130        H  0.29139895  0.39770155  0.98769482     0.11800
C131        C  0.22114115  0.88379368  0.00259368     0.18100
C132        C  0.26731904  0.90547135  0.51728921    -0.11000
C133        C  0.29273550  0.95644258  0.52357499    -0.11900
C134        C  0.27111642  0.98596770  0.01516635     0.19700
C135        C  0.21954806  0.96003960  0.01106058    -0.13900
C136        C  0.19466368  0.90916057  0.00478215    -0.12200
C137        C  0.29632538  0.03823847  0.02217473     0.00600
C138        C  0.31592070  0.08162194  0.02881843    -0.32200
C139        C  0.19528758  0.83138815  0.49563838     0.02000
C140        C  0.17192927  0.78785938  0.48924529    -0.33900
H141        H  0.28300712  0.88295282  0.52430813     0.13100
H142        H  0.32768687  0.97266713  0.53545968     0.12900
H143        H  0.19856742  0.97912053  0.01279037     0.12700
H144        H  0.15479035  0.88960983  0.00164056     0.11800
C145        C  0.92130537  0.58165393  0.50267111     0.18100
C146        C  0.89710110  0.60856419  0.50826039    -0.11000
C147        C  0.84612344  0.58326716  0.01422329    -0.11900
C148        C  0.81940720  0.53131393  0.01556098     0.19700
C149        C  0.84393667  0.50446956  0.01070483    -0.13900
C150        C  0.89488683  0.52950508  0.00447203    -0.12200
C151        C  0.76703634  0.50587756  0.02219371     0.00600
C152        C  0.72350866  0.48603734  0.02842721    -0.32200
C153        C  0.97359378  0.60768852  0.49576049     0.02000
C154        C  0.01703286  0.63118670  0.48926464    -0.33900
H155        H  0.91750059  0.64876650  0.50766814     0.13100
H156        H  0.82763387  0.60444760  0.01797842     0.12900
H157        H  0.82372520  0.46429056  0.01172527     0.12700
H158        H  0.91340385  0.50836574  0.00065953     0.11800
C159        C  0.46903116  0.58515043  0.50092803     0.18100
C160        C  0.44266988  0.53551852  0.01036905    -0.11000
C161        C  0.46732362  0.50940853  0.01695892    -0.11900
C162        C  0.51868602  0.53170866  0.01250708     0.19700
C163        C  0.54456262  0.58042608  0.50127744    -0.13900
C164        C  0.51970760  0.60622607  0.49458799    -0.12200
C165        C  0.54452971  0.50550685  0.01987558     0.00600
C166        C  0.56761056  0.48536511  0.02678561    -0.32200
C167        C  0.44361676  0.61183747  0.49369338     0.02000
C168        C  0.42374343  0.63518065  0.48679430    -0.33900
H169        H  0.40297687  0.51790413  0.01388687     0.13100
H170        H  0.44641796  0.47199060  0.02558938     0.12900
H171        H  0.58377435  0.59723338  0.49632450     0.12700
H172        H  0.53999077  0.64258290  0.48446205     0.11800
C173        C  0.81710264  0.28837529  0.01327276     0.18100
C174        C  0.84318860  0.33944285  0.50809051    -0.11000
C175        C  0.89402700  0.36457680  0.50154717    -0.11900
C176        C  0.91909534  0.33907229  0.00038975     0.19700
C177        C  0.89496856  0.28879578  0.00823929    -0.13900
C178        C  0.84418664  0.26356101  0.01467119    -0.12200
C179        C  0.97236195  0.36413799  0.49371233     0.04000
C180        C  0.01577087  0.38386319  0.48721362    -0.32200
C181        C  0.76487491  0.26207602  0.02031014     0.02000
C182        C  0.72157755  0.23844814  0.02708610    -0.33900
H183        H  0.82344220  0.35986202  0.50879300     0.13100
H184        H  0.91292862  0.40409297  0.49718067     0.12900
H185        H  0.91540381  0.26909750  0.00936641     0.12700
H186        H  0.82605431  0.22471612  0.02077138     0.11800
C187        C  0.51535576  0.98701393  0.01254649     0.18100
C188        C  0.47831411  0.95415645  0.53092835    -0.11000
C189        C  0.45326356  0.90334573  0.52434833    -0.11900
C190        C  0.46606838  0.88595804  0.49905376     0.19700
C191        C  0.49648750  0.91966215  0.97819226    -0.13900
C192        C  0.52131597  0.97046480  0.98472891    -0.12200
C193        C  0.44150903  0.83356216  0.49263353     0.00600
C194        C  0.42235884  0.79008931  0.48637648    -0.32200
C195        C  0.54256652  0.03913376  0.01980330     0.02000
C196        C  0.56628762  0.08234863  0.02677591    -0.33900
H197        H  0.46848348  0.96711970  0.55072138     0.13100
H198        H  0.42431221  0.87763952  0.53909496     0.12900
H199        H  0.50174053  0.90728863  0.95670291     0.12700
H200        H  0.54551976  0.99674794  0.96824257     0.11800
C201        C  0.46447780  0.58280255  0.26266302     0.18100
C202        C  0.43852801  0.53165334  0.25680091    -0.11000
C203        C  0.46452962  0.50675572  0.25048966    -0.11900
C204        C  0.51659138  0.53288588  0.25005817     0.19700
C205        C  0.54244159  0.58398299  0.25592604    -0.13900
C206        C  0.51648810  0.60883571  0.26222044    -0.12200
C207        C  0.54368405  0.50773058  0.24317377     0.00600
C208        C  0.56761311  0.48827530  0.23668261    -0.32200
C209        C  0.43811952  0.60870347  0.26954334     0.02000
C210        C  0.41792564  0.63189377  0.27613930    -0.33900
H211        H  0.39831381  0.51107155  0.25713850     0.13100
H212        H  0.44409630  0.46725597  0.24592520     0.12900
H213        H  0.58265417  0.60461813  0.25559426     0.12700
H214        H  0.53697447  0.64833825  0.26677233     0.11800
C215        C  0.92094782  0.58592426  0.26473709     0.18100
C216        C  0.89008655  0.60319124  0.27552692    -0.11000
C217        C  0.83945897  0.57791095  0.26859361    -0.11900
C218        C  0.81933872  0.53516103  0.25084352     0.19700
C219        C  0.85013986  0.51773265  0.24012653    -0.13900
C220        C  0.90083208  0.54304378  0.24707057    -0.12200
C221        C  0.76735584  0.50988045  0.24322529     0.00600
C222        C  0.72406254  0.48995002  0.23640285    -0.32200
C223        C  0.97312168  0.61236889  0.27187727     0.02000
C224        C  0.01642108  0.63562458  0.27870367    -0.33900
H225        H  0.90519047  0.63626460  0.28922262     0.13100
H226        H  0.81606645  0.59180662  0.27695762     0.12900
H227        H  0.83503229  0.48476874  0.22633543     0.12700
H228        H  0.92429892  0.52929503  0.23862365     0.11800
C229        C  0.51392061  0.98429092  0.24919577     0.18100
C230        C  0.46236575  0.95930524  0.25343751    -0.11000
C231        C  0.43666068  0.90836060  0.25960729    -0.11900
C232        C  0.46239711  0.88218577  0.26152006     0.19700
C233        C  0.51388342  0.90718795  0.25716589    -0.13900
C234        C  0.53954451  0.95804476  0.25101792    -0.12200
C235        C  0.43648275  0.83002641  0.26863008     0.00600
C236        C  0.41669372  0.78679595  0.27550543    -0.32200
C237        C  0.54069848  0.03665164  0.24267650     0.02000
C238        C  0.56456360  0.08015971  0.23650954    -0.33900
H239        H  0.44210933  0.97916225  0.25201853     0.13100
H240        H  0.39686629  0.88948121  0.26300062     0.12900
H241        H  0.53421151  0.88741203  0.25865732     0.12700
H242        H  0.57936138  0.97690948  0.24772098     0.11800
C243        C  0.91786933  0.33390239  0.26663647     0.18100
C244        C  0.88720978  0.28469004  0.27577219    -0.11000
C245        C  0.83649971  0.25979806  0.26900407    -0.11900
C246        C  0.81612121  0.28398146  0.25308233     0.19700
C247        C  0.84672835  0.33325356  0.24402098    -0.13900
C248        C  0.89747297  0.35816375  0.25079470    -0.12200
C249        C  0.76412416  0.25783172  0.24547443     0.00600
C250        C  0.72093147  0.23497061  0.23837044    -0.32200
C251        C  0.97012436  0.35933284  0.27360703     0.02000
C252        C  0.01357638  0.37954982  0.28011233    -0.33900
H253        H  0.90251856  0.26554714  0.28804671     0.13100
H254        H  0.81326391  0.22168113  0.27605261     0.12900
H255        H  0.83143574  0.35229846  0.23162999     0.12700
H256        H  0.92076485  0.39620557  0.24363522     0.11800
C257        C  0.22375118  0.88618803  0.26638555     0.18100
C258        C  0.19869861  0.91303319  0.26504455    -0.11000
C259        C  0.22468988  0.96374269  0.25853553    -0.11900
C260        C  0.27592965  0.98799306  0.25334907     0.19700
C261        C  0.30109637  0.96121035  0.25470222    -0.13900
C262        C  0.27505473  0.91040086  0.26123113    -0.12200
C263        C  0.30215163  0.04009916  0.24619863     0.00600
C264        C  0.32189840  0.08338547  0.23951499    -0.32200
C265        C  0.19667020  0.83401186  0.27335724     0.02000
C266        C  0.17269617  0.79066030  0.27986425    -0.33900
H267        H  0.15908391  0.89476344  0.26903508     0.13100
H268        H  0.20482138  0.98402012  0.25748608     0.12900
H269        H  0.34070334  0.97952803  0.25066963     0.12700
H270        H  0.29486039  0.89005978  0.26226012     0.11800
C271        C  0.27369303  0.28627048  0.25608754     0.18100
C272        C  0.29580976  0.33759563  0.25164003    -0.11000
C273        C  0.26946253  0.36205661  0.25811590    -0.11900
C274        C  0.22083673  0.33530173  0.26904190     0.19700
C275        C  0.19894243  0.28409018  0.27378904    -0.13900
C276        C  0.22526898  0.25964792  0.26732008    -0.12200
C277        C  0.19324055  0.36014372  0.27530789     0.00600
C278        C  0.16932408  0.37986897  0.28114426    -0.32200
C279        C  0.29991029  0.26059961  0.24822877     0.02000
C280        C  0.32029024  0.23797204  0.24074443    -0.33900
H281        H  0.33317904  0.35858535  0.24292829     0.13100
H282        H  0.28685199  0.40167526  0.25442578     0.12900
H283        H  0.16143506  0.26302272  0.28228954     0.12700
H284        H  0.20771788  0.21996664  0.27080643     0.11800
C285        C  0.34248201  0.13410772  0.73014002     0.81300
N286        N  0.37929255  0.15289497  0.70962125    -0.77000
C287        C  0.39788161  0.20007631  0.69957642     0.83700
N288        N  0.37903155  0.22826948  0.71007361    -0.76900
C289        C  0.34218897  0.20953176  0.73063842     0.83800
N290        N  0.32374247  0.16233997  0.74050398    -0.78700
C291        C  0.06446703  0.40189979  0.78914744     0.81300
N292        N  0.08369232  0.44087584  0.80830464    -0.77000
C293        C  0.13129501  0.46086887  0.81798707     0.83700
N294        N  0.15934263  0.44123998  0.80861390    -0.76900
C295        C  0.14024548  0.40228727  0.78948723     0.83800
N296        N  0.09265938  0.38239373  0.77989281    -0.78700
C297        C  0.59402329  0.13136136  0.72823746     0.81300
N298        N  0.57607047  0.15097800  0.70825117    -0.77000
C299        C  0.60477698  0.19854606  0.69883317     0.83700
N300        N  0.65184569  0.22628134  0.70937485    -0.76900
C301        C  0.66988299  0.20673203  0.72939380     0.83800
N302        N  0.64106614  0.15916486  0.73866526    -0.78700
C303        C  0.67250131  0.46731905  0.72789112     0.81300
N304        N  0.65366264  0.42907181  0.70822774    -0.77000
C305        C  0.60614735  0.40921994  0.69841457     0.83700
N306        N  0.57774556  0.42819896  0.70820949    -0.76900
C307        C  0.59646471  0.46640464  0.72787350     0.83800
N308        N  0.64397694  0.48618059  0.73757507    -0.78700
C309        C  0.39527439  0.73606977  0.78526888     0.81300
N310        N  0.35836986  0.71753903  0.80575542    -0.77000
C311        C  0.33980125  0.67048327  0.81604678     0.83700
N312        N  0.35876189  0.64224557  0.80588866    -0.76900
C313        C  0.39567474  0.66069288  0.78541977     0.83800
N314        N  0.41414526  0.70773288  0.77526395    -0.78700
C315        C  0.14286718  0.73955477  0.78865987     0.81300
N316        N  0.16135399  0.72018624  0.80847454    -0.77000
C317        C  0.13294038  0.67266841  0.81804799     0.83700
N318        N  0.08567052  0.64477688  0.80784362    -0.76900
C319        C  0.06708531  0.66407396  0.78802851     0.83800
N320        N  0.09560922  0.71157883  0.77858053    -0.78700
Fe321      Fe  0.23961664  0.67541304  0.88316851     1.65800
Fe322      Fe  0.12891890  0.56531780  0.88300238     1.73200
Fe323      Fe  0.23905210  0.56483799  0.88271555     1.54400
O324        O  0.28692000  0.60813263  0.84949416    -0.80600
O325        O  0.12410128  0.51670276  0.91567520    -0.78900
O326        O  0.28719762  0.67994023  0.84976283    -0.83100
O327        O  0.28903937  0.68031895  0.91538069    -0.78000
O328        O  0.19448890  0.51575746  0.85032091    -0.79700
O329        O  0.12460189  0.60912639  0.91600621    -0.82500
C330        C  0.30465223  0.65227855  0.92488378     0.98300
C331        C  0.30210633  0.65158176  0.83964526     1.05700
O332        O  0.20252755  0.60184384  0.88295293    -1.11500
O333        O  0.12390862  0.60910368  0.85032514    -0.73900
O334        O  0.19544613  0.68086552  0.85093741    -0.77400
O335        O  0.28880816  0.60864579  0.91512768    -0.78100
C336        C  0.15201370  0.65287356  0.84092937     0.97200
O337        O  0.19678585  0.68030819  0.91662650    -0.76000
O338        O  0.12317667  0.51633293  0.85011592    -0.81200
C339        C  0.15223552  0.50144642  0.92560333     0.99800
C340        C  0.15095385  0.50037528  0.84055728     1.05700
O341        O  0.19579650  0.51677486  0.91587033    -0.76900
C342        C  0.15314463  0.65225885  0.92629672     1.04000
C343        C  0.59633120  0.13364467  0.53658234     0.81300
N344        N  0.64362867  0.16221939  0.52678185    -0.77000
C345        C  0.67188408  0.20936410  0.53699806     0.83700
N346        N  0.65296018  0.22769285  0.55728760    -0.76900
C347        C  0.60562085  0.19922502  0.56720582     0.83800
N348        N  0.57748032  0.15205971  0.55686736    -0.78700
C349        C  0.40101840  0.73849126  0.97732056     0.81300
N350        N  0.42086910  0.71074194  0.98674125    -0.77000
C351        C  0.40211161  0.66346844  0.97676127     0.83700
N352        N  0.36389080  0.64421326  0.95708535    -0.76900
C353        C  0.34394765  0.67189713  0.94757258     0.83800
N354        N  0.36282486  0.71914059  0.95767435    -0.78700
C355        C  0.67254054  0.46495162  0.53770678     0.81300
N356        N  0.64441328  0.48410743  0.52782375    -0.77000
C357        C  0.59699234  0.46505138  0.53749617     0.83700
N358        N  0.57795172  0.42722729  0.55734905    -0.76900
C359        C  0.60598089  0.40795409  0.56735173     0.83800
N360        N  0.65340169  0.42714432  0.55755489    -0.78700
C361        C  0.06817926  0.66063184  0.98047122     0.81300
N362        N  0.09625715  0.70800487  0.99040732    -0.77000
C363        C  0.14335670  0.73680285  0.98030454     0.83700
N364        N  0.16209723  0.71838968  0.95994794    -0.76900
C365        C  0.13411334  0.67104449  0.94986269     0.83800
N366        N  0.08702689  0.64235824  0.96010415    -0.78700
C367        C  0.33949071  0.13271708  0.53751236     0.81300
N368        N  0.37708790  0.15173382  0.55757675    -0.77000
C369        C  0.39631615  0.19915360  0.56746516     0.83700
N370        N  0.37736526  0.22735755  0.55730965    -0.76900
C371        C  0.33977654  0.20845201  0.53721851     0.83800
N372        N  0.32063404  0.16100815  0.52746582    -0.78700
C373        C  0.06601015  0.40631895  0.97839227     0.81300
N374        N  0.08525344  0.44392056  0.95841587    -0.77000
C375        C  0.13275887  0.46308976  0.94877403     0.83700
N376        N  0.16079889  0.44403656  0.95907629    -0.76900
C377        C  0.14166426  0.40643495  0.97907749     0.83800
N378        N  0.09414821  0.38737174  0.98858232    -0.78700
Fe379      Fe  0.49906407  0.19539404  0.63298648     1.65800
Fe380      Fe  0.60965325  0.30558226  0.63324456     1.73200
Fe381      Fe  0.49937292  0.30583462  0.63310765     1.54400
O382        O  0.45042580  0.26208257  0.60037502    -0.80600
O383        O  0.61489064  0.35465563  0.66590218    -0.78900
O384        O  0.45018390  0.19037998  0.60037632    -0.83100
O385        O  0.45094123  0.19089874  0.66606805    -0.78000
O386        O  0.54304757  0.35414839  0.60020376    -0.79700
O387        O  0.61444168  0.26209238  0.66625500    -0.82500
C388        C  0.43575237  0.21912670  0.67603373     0.98300
C389        C  0.43487245  0.21850988  0.59058657     1.05700
O390        O  0.53604415  0.26894728  0.63310470    -1.11500
O391        O  0.61450304  0.26153870  0.60057853    -0.73900
O392        O  0.54243284  0.19025452  0.59994475    -0.77400
O393        O  0.45091426  0.26251304  0.66612090    -0.78100
C394        C  0.58620588  0.21823360  0.59044075     0.97200
O395        O  0.54286708  0.19033139  0.66555698    -0.76000
O396        O  0.61461163  0.35396550  0.60028106    -0.81200
C397        C  0.58683827  0.37021407  0.67555506     0.99800
C398        C  0.58655877  0.36940201  0.59043065     1.05700
O399        O  0.54330108  0.35469009  0.66575717    -0.76900
C400        C  0.58617639  0.21837953  0.67571041     1.04000
C401        C  0.22086236  0.33721691  0.50023786     0.18100
C402        C  0.19439707  0.29115009  0.01508331    -0.11000
C403        C  0.21949415  0.26553674  0.02163002    -0.11900
C404        C  0.27233840  0.28694716  0.51343699     0.19700
C405        C  0.29789486  0.33892815  0.51193261    -0.13900
C406        C  0.27221383  0.36400493  0.50532510    -0.12200
C407        C  0.29826227  0.26085553  0.52083987     0.00600
C408        C  0.31814568  0.23755167  0.52777616    -0.32200
C409        C  0.19376910  0.36457308  0.99545958     0.02000
C410        C  0.17052608  0.38454798  0.98856133    -0.33900
H411        H  0.15494862  0.27367901  0.01945005     0.13100
H412        H  0.19915116  0.22864718  0.03105967     0.12900
H413        H  0.33752514  0.36001755  0.51595818     0.12700
H414        H  0.29233176  0.40417137  0.50422952     0.11800
C415        C  0.22184270  0.88386658  0.50212962     0.18100
C416        C  0.27277482  0.90970499  0.00662477    -0.11000
C417        C  0.29770134  0.96067105  0.01292042    -0.11900
C418        C  0.27282662  0.98605746  0.51469641     0.19700
C419        C  0.22751786  0.96445879  0.49940970    -0.13900
C420        C  0.20213998  0.91356781  0.49313574    -0.12200
C421        C  0.29807079  0.03828862  0.52181806     0.00600
C422        C  0.31766166  0.08169515  0.52840488    -0.32200
C423        C  0.19517463  0.83140715  0.99585464     0.02000
C424        C  0.17205539  0.78788847  0.98941898    -0.33900
H425        H  0.29369710  0.89056207  0.00491454     0.13100
H426        H  0.33756671  0.98026581  0.01610149     0.12900
H427        H  0.21168533  0.98689596  0.49248572     0.12700
H428        H  0.16709009  0.89735958  0.48135888     0.11800
C429        C  0.92155909  0.58150866  0.00312030     0.18100
C430        C  0.89698699  0.60825969  0.00801047    -0.11000
C431        C  0.84629247  0.58370464  0.51461410    -0.11900
C432        C  0.81926225  0.53172700  0.51539432     0.19700
C433        C  0.84340516  0.50471362  0.50980315    -0.13900
C434        C  0.89430525  0.52961834  0.50342890    -0.12200
C435        C  0.76698637  0.50644615  0.52225868     0.00600
C436        C  0.72356818  0.48678896  0.52872618    -0.32200
C437        C  0.97386272  0.60763920  0.99624672     0.02000
C438        C  0.01728094  0.63115557  0.98970420    -0.33900
H439        H  0.91713164  0.64843498  0.00695495     0.13100
H440        H  0.82809775  0.60500938  0.51893754     0.12900
H441        H  0.82294276  0.46450992  0.51038796     0.12700
H442        H  0.91253783  0.50835889  0.49907499     0.11800
C443        C  0.46927624  0.58407550  0.99933511     0.18100
C444        C  0.44331414  0.53802558  0.51399585    -0.11000
C445        C  0.46820785  0.51219100  0.52069992    -0.11900
C446        C  0.51892256  0.53333384  0.51433869     0.19700
C447        C  0.54519993  0.58019166  0.00142021    -0.13900
C448        C  0.52058495  0.60626740  0.99484684    -0.12200
C449        C  0.54500009  0.50732574  0.52163772     0.00600
C450        C  0.56814412  0.48714592  0.52833499    -0.32200
C451        C  0.44415679  0.61114408  0.99234708     0.02000
C452        C  0.42439186  0.63471751  0.98574699    -0.33900
H453        H  0.40411580  0.52128410  0.51896828     0.13100
H454        H  0.44798177  0.47585929  0.53086143     0.12900
H455        H  0.58491393  0.59789030  0.99795965     0.12700
H456        H  0.54155738  0.64373053  0.98629192     0.11800
C457        C  0.81821748  0.28828298  0.51375471     0.18100
C458        C  0.84117021  0.33870011  0.00541131    -0.11000
C459        C  0.89205261  0.36398368  0.99896189    -0.11900
C460        C  0.92012367  0.33867292  0.50068201     0.19700
C461        C  0.89508789  0.28754491  0.50629454    -0.13900
C462        C  0.84434010  0.26245509  0.51282284    -0.12200
C463        C  0.97137489  0.36462893  0.99349056     0.04000
C464        C  0.01486242  0.38442075  0.98715643    -0.32200
C465        C  0.76605948  0.26216723  0.52095739     0.02000
C466        C  0.72276439  0.23874343  0.52775754    -0.33900
H467        H  0.82068407  0.35835009  0.00431206     0.13100
H468        H  0.91024707  0.40283558  0.99287044     0.12900
H469        H  0.91479368  0.26708449  0.50562307     0.12700
H470        H  0.82549798  0.22294594  0.51720439     0.11800
C471        C  0.51625072  0.98782077  0.51223851     0.18100
C472        C  0.48401387  0.95251721  0.03367004    -0.11000
C473        C  0.45918880  0.90170134  0.02713424    -0.11900
C474        C  0.46560308  0.88512636  0.99943869     0.19700
C475        C  0.50358621  0.91969441  0.48018158    -0.13900
C476        C  0.52862891  0.97047579  0.48676067    -0.12200
C477        C  0.44139445  0.83277581  0.99292712     0.00600
C478        C  0.42239799  0.78935974  0.98655394    -0.32200
C479        C  0.54350981  0.03984442  0.51972791     0.02000
C480        C  0.56723723  0.08298538  0.52685443    -0.33900
H481        H  0.47919761  0.96486266  0.05527583     0.13100
H482        H  0.43542507  0.87537383  0.04373768     0.12900
H483        H  0.51379314  0.90669190  0.46055482     0.12700
H484        H  0.55794667  0.99610716  0.47217859     0.11800
C485        C  0.46398901  0.58258598  0.76254738     0.18100
C486        C  0.43797546  0.53167492  0.75599483    -0.11000
C487        C  0.46392456  0.50671841  0.74972434    -0.11900
C488        C  0.51598613  0.53256143  0.75002563     0.19700
C489        C  0.54189988  0.58343237  0.75654578    -0.13900
C490        C  0.51600009  0.60834325  0.76279974    -0.12200
C491        C  0.54304557  0.50736211  0.74323843     0.00600
C492        C  0.56702111  0.48793078  0.73684448    -0.32200
C493        C  0.43767865  0.60850000  0.76946288     0.02000
C494        C  0.41753880  0.63170136  0.77612533    -0.33900
H495        H  0.39775521  0.51131900  0.75578506     0.13100
H496        H  0.44345624  0.46739760  0.74463910     0.12900
H497        H  0.58211926  0.60383910  0.75676993     0.12700
H498        H  0.53652388  0.64766356  0.76788151     0.11800
C499        C  0.92061836  0.58577993  0.76487232     0.18100
C500        C  0.88989859  0.60320213  0.77569572    -0.11000
C501        C  0.83920665  0.57793478  0.76891215    -0.11900
C502        C  0.81887847  0.53504259  0.75127865     0.19700
C503        C  0.84953866  0.51747088  0.74052494    -0.13900
C504        C  0.90028824  0.54276511  0.74731825    -0.12200
C505        C  0.76683318  0.50975017  0.74380085     0.00600
C506        C  0.72351773  0.48974513  0.73701545    -0.32200
C507        C  0.97285551  0.61215870  0.77188833     0.02000
C508        C  0.01620430  0.63535104  0.77863340    -0.33900
H509        H  0.90515878  0.63637609  0.78930907     0.13100
H510        H  0.81592698  0.59194575  0.77730360     0.12900
H511        H  0.83427386  0.48439835  0.72682250     0.12700
H512        H  0.92363209  0.52888666  0.73884844     0.11800
C513        C  0.51385350  0.98425283  0.74933194     0.18100
C514        C  0.46226387  0.95916588  0.75343013    -0.11000
C515        C  0.43660616  0.90822417  0.75961309    -0.11900
C516        C  0.46241944  0.88214377  0.76168708     0.19700
C517        C  0.51393776  0.90723554  0.75745141    -0.13900
C518        C  0.53955344  0.95809334  0.75128920    -0.12200
C519        C  0.43653503  0.82999898  0.76885408     0.00600
C520        C  0.41669984  0.78677485  0.77575854    -0.32200
C521        C  0.54059234  0.03663896  0.74285708     0.02000
C522        C  0.56442099  0.08018439  0.73676245    -0.33900
H523        H  0.44194434  0.97894783  0.75190398     0.13100
H524        H  0.39678636  0.88927694  0.76290600     0.12900
H525        H  0.53432789  0.88753534  0.75906005     0.12700
H526        H  0.57939729  0.97703114  0.74810156     0.11800
C527        C  0.91745522  0.33380655  0.76728597     0.18100
C528        C  0.88678034  0.28458818  0.77639900    -0.11000
C529        C  0.83603206  0.25982316  0.76975967    -0.11900
C530        C  0.81564579  0.28415360  0.75400073     0.19700
C531        C  0.84625554  0.33345939  0.74500787    -0.13900
C532        C  0.89703686  0.35824087  0.75165156    -0.12200
C533        C  0.76366436  0.25806963  0.74640049     0.00600
C534        C  0.72052556  0.23520728  0.73920597    -0.32200
C535        C  0.96976990  0.35905159  0.77402265     0.02000
C536        C  0.01328419  0.37920305  0.78033427    -0.33900
H537        H  0.90211567  0.26532703  0.78852376     0.13100
H538        H  0.81278339  0.22167511  0.77674933     0.12900
H539        H  0.83094677  0.35260891  0.73274060     0.12700
H540        H  0.92034975  0.39629761  0.74452339     0.11800
C541        C  0.22310797  0.88611690  0.76635444     0.18100
C542        C  0.19800980  0.91293158  0.76519913    -0.11000
C543        C  0.22390071  0.96363969  0.75866712    -0.11900
C544        C  0.27508567  0.98791523  0.75327211     0.19700
C545        C  0.30029170  0.96115881  0.75445362    -0.13900
C546        C  0.27435432  0.91035819  0.76100525    -0.12200
C547        C  0.30123620  0.04001383  0.74607563     0.00600
C548        C  0.32109961  0.08329730  0.73935424    -0.32200
C549        C  0.19613761  0.83393379  0.77331065     0.02000
C550        C  0.17228434  0.79056517  0.77979366    -0.33900
H551        H  0.15843649  0.89463650  0.76934186     0.13100
H552        H  0.20399666  0.98389074  0.75775479     0.12900
H553        H  0.33985385  0.97949142  0.75026204     0.12700
H554        H  0.29419517  0.89004188  0.76189034     0.11800
C555        C  0.27423919  0.28694724  0.75615662     0.18100
C556        C  0.29565130  0.33797009  0.75079105    -0.11000
C557        C  0.26924092  0.36235815  0.75730818    -0.11900
C558        C  0.22125362  0.33583154  0.76919434     0.19700
C559        C  0.20012445  0.28496353  0.77490760    -0.13900
C560        C  0.22651082  0.26059639  0.76839724    -0.12200
C561        C  0.19345668  0.36050366  0.77537813     0.00600
C562        C  0.16934433  0.38005268  0.78114526    -0.32200
C563        C  0.30035402  0.26121992  0.74816503     0.02000
C564        C  0.32052691  0.23842599  0.74059846    -0.33900
H565        H  0.33248085  0.35875275  0.74130278     0.13100
H566        H  0.28604860  0.40171693  0.75286821     0.12900
H567        H  0.16312443  0.26407616  0.78415742     0.12700
H568        H  0.20950495  0.22115123  0.77260601     0.11800
loop_ 
_geom_bond_atom_site_label_1 
_geom_bond_atom_site_label_2 
_geom_bond_distance 
_geom_bond_site_symmetry_2 
_ccdc_geom_bond_type 
C1            N2   1.356       .  A
C1            N6   1.357       .  A
C1          C264   1.437       .  S
N2            C3   1.359       .  A
C3            N4   1.361       .  A
C3          C104   1.472       .  S
N4            C5   1.359       .  A
C5            N6   1.358       .  A
C5          C280   1.439       .  S
C7            N8   1.358       .  A
C7           N12   1.358       .  A
C7          C252   1.438       .  S
N8            C9   1.360       .  A
C9           N10   1.359       .  A
C9           C56   1.471       .  S
N10          C11   1.356       .  A
C11          N12   1.358       .  A
C11         C278   1.438       .  S
C13          N14   1.356       .  A
C13          N18   1.357       .  A
C13         C238   1.437       .  S
N14          C15   1.359       .  A
C15          N16   1.360       .  A
C15         C116   1.471       .  S
N16          C17   1.358       .  A
C17          N18   1.358       .  A
C17         C250   1.437       .  S
C19          N20   1.357       .  A
C19          N24   1.358       .  A
C19         C222   1.437       .  S
N20          C21   1.359       .  A
C21          N22   1.359       .  A
C21         C113   1.470       .  S
N22          C23   1.357       .  A
C23          N24   1.358       .  A
C23         C208   1.438       .  S
C25          N26   1.357       .  A
C25          N30   1.358       .  A
C25         C236   1.438       .  S
N26          C27   1.360       .  A
C27          N28   1.360       .  A
C27          C47   1.472       .  S
N28          C29   1.357       .  A
C29          N30   1.358       .  A
C29         C210   1.438       .  S
C31          N32   1.357       .  A
C31          N36   1.358       .  A
C31         C266   1.437       .  S
N32          C33   1.360       .  A
C33          N34   1.359       .  A
C33          C52   1.471       .  S
N34          C35   1.357       .  A
C35          N36   1.358       .  A
C35         C224   1.437       .  S
Fe37         O53   2.068       .  S
Fe37         O43   2.063       .  S
Fe37         O50   2.063       .  S
Fe37         O42   2.067       .  S
Fe37         O48   1.982       .  S
Fe38         O41   2.066       .  S
Fe38         O45   2.064       .  S
Fe38         O49   2.068       .  S
Fe38         O54   2.066       .  S
Fe38         O48   1.983       .  S
Fe39         O57   2.066       .  S
Fe39         O44   2.064       .  S
Fe39         O51   2.067       .  S
Fe39         O40   2.067       .  S
Fe39         O48   1.983       .  S
O40          C47   1.269       .  A
O41          C55   1.269       .  A
O42          C47   1.269       .  A
O43          C46   1.268       .  A
O44          C56   1.268       .  A
O45          C58   1.268       .  A
C46          C69   1.471       .  S
C46          O51   1.268       .  A
O49          C52   1.269       .  A
O50          C52   1.268       .  A
O53          C58   1.269       .  A
O54          C56   1.268       .  A
C55          C91   1.471       .  S
C55          O57   1.269       .  A
C58          C81   1.471       .  S
C59          N60   1.358       .  A
C59          N64   1.357       .  A
C59         C196   1.437       .  S
N60          C61   1.358       .  A
C61          N62   1.357       .  A
C61         C182   1.438       .  S
N62          C63   1.360       .  A
C63          N64   1.359       .  A
C63         C110   1.472       .  S
C65          N66   1.358       .  A
C65          N70   1.356       .  A
C65         C194   1.437       .  S
N66          C67   1.358       .  A
C67          N68   1.358       .  A
C67         C168   1.438       .  S
N68          C69   1.360       .  A
C69          N70   1.359       .  A
C71          N72   1.358       .  A
C71          N76   1.357       .  A
C71         C152   1.438       .  S
N72          C73   1.358       .  A
C73          N74   1.358       .  A
C73         C166   1.438       .  S
N74          C75   1.360       .  A
C75          N76   1.360       .  A
C75         C114   1.471       .  S
C77          N78   1.358       .  A
C77          N82   1.357       .  A
C77         C154   1.439       .  S
N78          C79   1.358       .  A
C79          N80   1.357       .  A
C79         C140   1.439       .  S
N80          C81   1.359       .  A
C81          N82   1.360       .  A
C83          N84   1.357       .  A
C83          N88   1.358       .  A
C83         C138   1.438       .  S
N84          C85   1.359       .  A
C85          N86   1.360       .  A
C85         C105   1.471       .  S
N86          C87   1.357       .  A
C87          N88   1.358       .  A
C87         C124   1.438       .  S
C89          N90   1.357       .  A
C89          N94   1.358       .  A
C89         C180   1.438       .  S
N90          C91   1.359       .  A
C91          N92   1.359       .  A
N92          C93   1.357       .  A
C93          N94   1.358       .  A
C93         C126   1.438       .  S
Fe95        O111   2.064       .  S
Fe95        O101   2.066       .  S
Fe95        O108   2.068       .  S
Fe95        O100   2.065       .  S
Fe95        O106   1.981       .  S
Fe96         O99   2.065       .  S
Fe96        O103   2.067       .  S
Fe96        O107   2.065       .  S
Fe96        O112   2.066       .  S
Fe96        O106   1.983       .  S
Fe97        O115   2.062       .  S
Fe97        O102   2.068       .  S
Fe97        O109   2.069       .  S
Fe97         O98   2.064       .  S
Fe97        O106   1.983       .  S
O98         C105   1.268       .  A
O99         C113   1.268       .  A
O100        C105   1.268       .  A
O101        C104   1.269       .  A
O102        C114   1.269       .  A
O103        C116   1.269       .  A
C104        O109   1.269       .  A
O107        C110   1.269       .  A
O108        C110   1.269       .  A
O111        C116   1.268       .  A
O112        C114   1.269       .  A
C113        O115   1.268       .  A
C117        C409   1.442   1_554  S
C117        C122   1.402   1_554  A
C117        C402   1.401       .  A
C118        C119   1.399       .  A
C118        C401   1.401       .  A
C118        H127   1.083       .  S
C119        C404   1.401       .  A
C119        H128   1.083       .  S
C120        C123   1.442       .  S
C120        C121   1.402       .  A
C120        C403   1.401       .  A
C121        C122   1.401   1_554  A
C121        H129   1.083   1_554  S
C122        H130   1.083       .  S
C123        C124   1.207       .  T
C125        C401   1.442       .  S
C125        C126   1.207       .  T
C131        C423   1.443   1_554  S
C131        C136   1.401       .  A
C131        C416   1.403       .  A
C132        C133   1.401       .  A
C132        C415   1.402       .  A
C132        H141   1.083       .  S
C133        C418   1.403       .  A
C133        H142   1.083       .  S
C134        C137   1.443   1_565  S
C134        C135   1.401       .  A
C134        C417   1.403       .  A
C135        C136   1.399       .  A
C135        H143   1.083       .  S
C136        H144   1.083       .  S
C137        C138   1.208       .  T
C139        C415   1.443       .  S
C139        C140   1.208       .  T
C145        C153   1.443       .  S
C145        C146   1.401       .  A
C145        C434   1.403       .  A
C146        C431   1.399       .  A
C146        H155   1.083       .  S
C147        C148   1.401       .  A
C147        C430   1.399       .  A
C147        H156   1.084       .  S
C148        C151   1.443       .  S
C148        C149   1.403       .  A
C149        C150   1.401       .  A
C149        H157   1.084       .  S
C150        C429   1.403       .  A
C150        H158   1.084       .  S
C151        C152   1.208       .  T
C153        C154   1.208   1_655  T
C159        C167   1.443       .  S
C159        C164   1.401       .  A
C159        C444   1.402       .  A
C160        C161   1.401       .  A
C160        C443   1.402   1_554  A
C160        H169   1.083       .  S
C161        C162   1.402       .  A
C161        H170   1.083       .  S
C162        C165   1.442       .  S
C162        C447   1.401       .  A
C163        C164   1.399       .  A
C163        C446   1.401       .  A
C163        H171   1.083       .  S
C164        H172   1.083       .  S
C165        C166   1.207       .  T
C167        C168   1.208       .  T
C173        C181   1.443       .  S
C173        C178   1.401       .  A
C173        C458   1.403       .  A
C174        C175   1.401       .  A
C174        C457   1.402       .  A
C174        H183   1.083       .  S
C175        C460   1.403       .  A
C175        H184   1.083       .  S
C176        C463   1.443   1_554  S
C176        C177   1.401       .  A
C176        C459   1.403   1_554  A
C177        C178   1.399       .  A
C177        H185   1.083       .  S
C178        H186   1.083       .  S
C179        C460   1.442       .  S
C179        C180   1.207   1_655  T
C181        C182   1.208       .  T
C187        C195   1.441   1_565  S
C187        C192   1.401   1_554  A
C187        C472   1.402       .  A
C188        C189   1.400       .  A
C188        C471   1.402       .  A
C188        H197   1.083       .  S
C189        C190   1.401       .  A
C189        H198   1.083       .  S
C190        C193   1.441       .  S
C190        C475   1.402       .  A
C191        C192   1.399       .  A
C191        C474   1.402       .  A
C191        H199   1.083       .  S
C192        H200   1.083       .  S
C193        C194   1.207       .  T
C195        C196   1.207       .  T
C201        C209   1.442       .  S
C201        C202   1.402       .  A
C201        C206   1.401       .  A
C202        C203   1.401       .  A
C202        H211   1.084       .  S
C203        C204   1.403       .  A
C203        H212   1.084       .  S
C204        C207   1.442       .  S
C204        C205   1.401       .  A
C205        C206   1.399       .  A
C205        H213   1.084       .  S
C206        H214   1.084       .  S
C207        C208   1.207       .  T
C209        C210   1.207       .  T
C215        C223   1.441       .  S
C215        C216   1.401       .  A
C215        C220   1.402       .  A
C216        C217   1.399       .  A
C216        H225   1.084       .  S
C217        C218   1.401       .  A
C217        H226   1.083       .  S
C218        C221   1.442       .  S
C218        C219   1.402       .  A
C219        C220   1.401       .  A
C219        H227   1.083       .  S
C220        H228   1.083       .  S
C221        C222   1.207       .  T
C223        C224   1.207   1_655  T
C229        C237   1.442   1_565  S
C229        C230   1.402       .  A
C229        C234   1.401       .  A
C230        C231   1.401       .  A
C230        H239   1.084       .  S
C231        C232   1.402       .  A
C231        H240   1.084       .  S
C232        C235   1.442       .  S
C232        C233   1.401       .  A
C233        C234   1.399       .  A
C233        H241   1.084       .  S
C234        H242   1.084       .  S
C235        C236   1.207       .  T
C237        C238   1.207       .  T
C243        C251   1.442       .  S
C243        C244   1.402       .  A
C243        C248   1.402       .  A
C244        C245   1.399       .  A
C244        H253   1.083       .  S
C245        C246   1.401       .  A
C245        H254   1.083       .  S
C246        C249   1.442       .  S
C246        C247   1.402       .  A
C247        C248   1.400       .  A
C247        H255   1.083       .  S
C248        H256   1.083       .  S
C249        C250   1.207       .  T
C251        C252   1.207   1_655  T
C257        C265   1.441       .  S
C257        C258   1.401       .  A
C257        C262   1.402       .  A
C258        C259   1.398       .  A
C258        H267   1.084       .  S
C259        C260   1.401       .  A
C259        H268   1.084       .  S
C260        C263   1.441   1_565  S
C260        C261   1.402       .  A
C261        C262   1.401       .  A
C261        H269   1.084       .  S
C262        H270   1.084       .  S
C263        C264   1.207       .  T
C265        C266   1.207       .  T
C271        C279   1.443       .  S
C271        C272   1.402       .  A
C271        C276   1.402       .  A
C272        C273   1.401       .  A
C272        H281   1.083       .  S
C273        C274   1.402       .  A
C273        H282   1.083       .  S
C274        C277   1.442       .  S
C274        C275   1.402       .  A
C275        C276   1.400       .  A
C275        H283   1.083       .  S
C276        H284   1.083       .  S
C277        C278   1.207       .  T
C279        C280   1.208       .  T
C285        N286   1.357       .  A
C285        N290   1.357       .  A
C285        C548   1.437       .  S
N286        C287   1.359       .  A
C287        N288   1.361       .  A
C287        C388   1.473       .  S
N288        C289   1.359       .  A
C289        N290   1.358       .  A
C289        C564   1.439       .  S
C291        N292   1.358       .  A
C291        N296   1.358       .  A
C291        C536   1.437       .  S
N292        C293   1.359       .  A
C293        N294   1.359       .  A
C293        C340   1.470       .  S
N294        C295   1.356       .  A
C295        N296   1.358       .  A
C295        C562   1.438       .  S
C297        N298   1.356       .  A
C297        N302   1.357       .  A
C297        C522   1.437       .  S
N298        C299   1.359       .  A
C299        N300   1.360       .  A
C299        C400   1.470       .  S
N300        C301   1.358       .  A
C301        N302   1.358       .  A
C301        C534   1.437       .  S
C303        N304   1.357       .  A
C303        N308   1.358       .  A
C303        C506   1.437       .  S
N304        C305   1.359       .  A
C305        N306   1.359       .  A
C305        C397   1.470       .  S
N306        C307   1.356       .  A
C307        N308   1.358       .  A
C307        C492   1.437       .  S
C309        N310   1.357       .  A
C309        N314   1.358       .  A
C309        C520   1.438       .  S
N310        C311   1.360       .  A
C311        N312   1.359       .  A
C311        C331   1.471       .  S
N312        C313   1.357       .  A
C313        N314   1.358       .  A
C313        C494   1.437       .  S
C315        N316   1.357       .  A
C315        N320   1.358       .  A
C315        C550   1.437       .  S
N316        C317   1.359       .  A
C317        N318   1.360       .  A
C317        C336   1.471       .  S
N318        C319   1.357       .  A
C319        N320   1.358       .  A
C319        C508   1.437       .  S
Fe321       O337   2.068       .  S
Fe321       O327   2.064       .  S
Fe321       O334   2.064       .  S
Fe321       O326   2.066       .  S
Fe321       O332   1.982       .  S
Fe322       O325   2.064       .  S
Fe322       O329   2.065       .  S
Fe322       O333   2.067       .  S
Fe322       O338   2.066       .  S
Fe322       O332   1.983       .  S
Fe323       O341   2.067       .  S
Fe323       O328   2.063       .  S
Fe323       O335   2.065       .  S
Fe323       O324   2.067       .  S
Fe323       O332   1.983       .  S
O324        C331   1.269       .  A
O325        C339   1.269       .  A
O326        C331   1.269       .  A
O327        C330   1.268       .  A
O328        C340   1.268       .  A
O329        C342   1.269       .  A
C330        C353   1.471       .  S
C330        O335   1.268       .  A
O333        C336   1.269       .  A
O334        C336   1.268       .  A
O337        C342   1.269       .  A
O338        C340   1.268       .  A
C339        C375   1.471       .  S
C339        O341   1.269       .  A
C342        C365   1.471       .  S
C343        N344   1.358       .  A
C343        N348   1.357       .  A
C343        C480   1.437       .  S
N344        C345   1.358       .  A
C345        N346   1.357       .  A
C345        C466   1.438       .  S
N346        C347   1.360       .  A
C347        N348   1.360       .  A
C347        C394   1.472       .  S
C349        N350   1.358       .  A
C349        N354   1.356       .  A
C349        C478   1.437       .  S
N350        C351   1.358       .  A
C351        N352   1.358       .  A
C351        C452   1.438       .  S
N352        C353   1.360       .  A
C353        N354   1.359       .  A
C355        N356   1.358       .  A
C355        N360   1.357       .  A
C355        C436   1.438       .  S
N356        C357   1.358       .  A
C357        N358   1.358       .  A
C357        C450   1.438       .  S
N358        C359   1.360       .  A
C359        N360   1.359       .  A
C359        C398   1.471       .  S
C361        N362   1.358       .  A
C361        N366   1.357       .  A
C361        C438   1.439       .  S
N362        C363   1.358       .  A
C363        N364   1.357       .  A
C363        C424   1.439       .  S
N364        C365   1.359       .  A
C365        N366   1.360       .  A
C367        N368   1.357       .  A
C367        N372   1.358       .  A
C367        C422   1.438       .  S
N368        C369   1.359       .  A
C369        N370   1.360       .  A
C369        C389   1.470       .  S
N370        C371   1.357       .  A
C371        N372   1.358       .  A
C371        C408   1.438       .  S
C373        N374   1.357       .  A
C373        N378   1.358       .  A
C373        C464   1.438       .  S
N374        C375   1.360       .  A
C375        N376   1.360       .  A
N376        C377   1.358       .  A
C377        N378   1.358       .  A
C377        C410   1.438       .  S
Fe379       O395   2.062       .  S
Fe379       O385   2.068       .  S
Fe379       O392   2.069       .  S
Fe379       O384   2.064       .  S
Fe379       O390   1.982       .  S
Fe380       O383   2.065       .  S
Fe380       O387   2.068       .  S
Fe380       O391   2.066       .  S
Fe380       O396   2.067       .  S
Fe380       O390   1.983       .  S
Fe381       O399   2.062       .  S
Fe381       O386   2.066       .  S
Fe381       O393   2.068       .  S
Fe381       O382   2.065       .  S
Fe381       O390   1.983       .  S
O382        C389   1.268       .  A
O383        C397   1.268       .  A
O384        C389   1.268       .  A
O385        C388   1.269       .  A
O386        C398   1.269       .  A
O387        C400   1.269       .  A
C388        O393   1.269       .  A
O391        C394   1.269       .  A
O392        C394   1.269       .  A
O395        C400   1.268       .  A
O396        C398   1.269       .  A
C397        O399   1.268       .  A
C401        C406   1.402       .  A
C402        C403   1.399       .  A
C402        H411   1.083       .  S
C403        H412   1.083       .  S
C404        C407   1.442       .  S
C404        C405   1.402       .  A
C405        C406   1.401       .  A
C405        H413   1.083       .  S
C406        H414   1.083       .  S
C407        C408   1.207       .  T
C409        C410   1.207       .  T
C415        C420   1.402       .  A
C416        C417   1.401       .  A
C416        H425   1.083       .  S
C417        H426   1.083       .  S
C418        C421   1.443   1_565  S
C418        C419   1.401       .  A
C419        C420   1.399       .  A
C419        H427   1.083       .  S
C420        H428   1.083       .  S
C421        C422   1.208       .  T
C423        C424   1.208       .  T
C429        C437   1.443   1_554  S
C429        C430   1.401       .  A
C430        H439   1.084       .  S
C431        C432   1.401       .  A
C431        H440   1.084       .  S
C432        C435   1.442       .  S
C432        C433   1.403       .  A
C433        C434   1.401       .  A
C433        H441   1.084       .  S
C434        H442   1.084       .  S
C435        C436   1.207       .  T
C437        C438   1.208   1_655  T
C443        C451   1.443       .  S
C443        C448   1.401       .  A
C444        C445   1.401       .  A
C444        H453   1.083       .  S
C445        C446   1.402       .  A
C445        H454   1.083       .  S
C446        C449   1.443       .  S
C447        C448   1.399   1_554  A
C447        H455   1.083   1_554  S
C448        H456   1.083       .  S
C449        C450   1.208       .  T
C451        C452   1.208       .  T
C457        C465   1.442       .  S
C457        C462   1.401       .  A
C458        C459   1.402   1_554  A
C458        H467   1.083       .  S
C459        H468   1.083       .  S
C460        C461   1.401       .  A
C461        C462   1.399       .  A
C461        H469   1.083       .  S
C462        H470   1.083       .  S
C463        C464   1.208   1_655  T
C465        C466   1.208       .  T
C471        C479   1.441   1_565  S
C471        C476   1.401       .  A
C472        C473   1.400       .  A
C472        H481   1.083       .  S
C473        C474   1.401   1_554  A
C473        H482   1.083       .  S
C474        C477   1.441       .  S
C475        C476   1.399       .  A
C475        H483   1.083       .  S
C476        H484   1.083       .  S
C477        C478   1.207       .  T
C479        C480   1.207       .  T
C485        C493   1.442       .  S
C485        C486   1.402       .  A
C485        C490   1.401       .  A
C486        C487   1.401       .  A
C486        H495   1.084       .  S
C487        C488   1.403       .  A
C487        H496   1.084       .  S
C488        C491   1.442       .  S
C488        C489   1.401       .  A
C489        C490   1.398       .  A
C489        H497   1.084       .  S
C490        H498   1.084       .  S
C491        C492   1.207       .  T
C493        C494   1.207       .  T
C499        C507   1.442       .  S
C499        C500   1.402       .  A
C499        C504   1.402       .  A
C500        C501   1.399       .  A
C500        H509   1.083       .  S
C501        C502   1.401       .  A
C501        H510   1.083       .  S
C502        C505   1.442       .  S
C502        C503   1.402       .  A
C503        C504   1.401       .  A
C503        H511   1.083       .  S
C504        H512   1.083       .  S
C505        C506   1.207       .  T
C507        C508   1.207   1_655  T
C513        C521   1.442   1_565  S
C513        C514   1.402       .  A
C513        C518   1.401       .  A
C514        C515   1.401       .  A
C514        H523   1.084       .  S
C515        C516   1.402       .  A
C515        H524   1.084       .  S
C516        C519   1.442       .  S
C516        C517   1.401       .  A
C517        C518   1.399       .  A
C517        H525   1.084       .  S
C518        H526   1.084       .  S
C519        C520   1.207       .  T
C521        C522   1.207       .  T
C527        C535   1.442       .  S
C527        C528   1.402       .  A
C527        C532   1.402       .  A
C528        C529   1.399       .  A
C528        H537   1.083       .  S
C529        C530   1.401       .  A
C529        H538   1.083       .  S
C530        C533   1.441       .  S
C530        C531   1.402       .  A
C531        C532   1.400       .  A
C531        H539   1.083       .  S
C532        H540   1.083       .  S
C533        C534   1.207       .  T
C535        C536   1.207   1_655  T
C541        C549   1.441       .  S
C541        C542   1.401       .  A
C541        C546   1.402       .  A
C542        C543   1.398       .  A
C542        H551   1.084       .  S
C543        C544   1.401       .  A
C543        H552   1.084       .  S
C544        C547   1.441   1_565  S
C544        C545   1.402       .  A
C545        C546   1.401       .  A
C545        H553   1.084       .  S
C546        H554   1.084       .  S
C547        C548   1.207       .  T
C549        C550   1.207       .  T
C555        C563   1.443       .  S
C555        C556   1.402       .  A
C555        C560   1.402       .  A
C556        C557   1.401       .  A
C556        H565   1.083       .  S
C557        C558   1.402       .  A
C557        H566   1.083       .  S
C558        C561   1.442       .  S
C558        C559   1.402       .  A
C559        C560   1.400       .  A
C559        H567   1.083       .  S
C560        H568   1.083       .  S
C561        C562   1.207       .  T
C563        C564   1.208       .  T
