geometry optimzed in LAMMPS
_audit_creation_date              2020-11-30 
_audit_creation_method            'lammps2cif' 
_symmetry_space_group_name_H-M    'P1' 
_symmetry_Int_Tables_number       1 
_symmetry_cell_setting            triclinic 
loop_ 
_symmetry_equiv_pos_as_xyz 
  x,y,z 
_cell_length_a                    46.89197252 
_cell_length_b                    25.063008869472867 
_cell_length_c                    25.677525532902134 
_cell_angle_alpha                 89.7447603753523 
_cell_angle_beta                  90.31660890438818 
_cell_angle_gamma                 90.13257093308047 
loop_ 
_atom_site_label 
_atom_site_type_symbol 
_atom_site_fract_x 
_atom_site_fract_y 
_atom_site_fract_z 
_atom_site_charge 
N1          N  0.15734265  0.43107076  0.05583724    -0.07000
N2          N  0.17904489  0.40091328  0.07221853    -0.59100
N3          N  0.13428410  0.40002538  0.94169826    -0.06700
N4          N  0.13978737  0.35535900  0.91714426    -0.61300
N5          N  0.15665717  0.43215842  0.94092334    -0.06300
N6          N  0.17824941  0.40756043  0.91769687    -0.59100
N7          N  0.13352079  0.40339415  0.06094001    -0.06000
N8          N  0.13831531  0.35777631  0.08443225    -0.61600
C9          C  0.16661278  0.35532610  0.09069421     0.95200
C10         C  0.16698095  0.36015674  0.90178942     0.94900
N11         N  0.04798305  0.44100811  0.93821125    -0.07200
N12         N  0.03679119  0.44525827  0.89100760    -0.59700
N13         N  0.06856003  0.40670387  0.06259942    -0.05300
N14         N  0.07136126  0.38587489  0.10978225    -0.61000
N15         N  0.04826678  0.44263615  0.06194466    -0.07200
N16         N  0.03692269  0.44683222  0.10880256    -0.60000
N17         N  0.06854264  0.40555859  0.93835210    -0.05000
N18         N  0.07179163  0.38552223  0.89122433    -0.58700
Mn19       Mn  0.10065176  0.40339949  0.00083963     1.18400
C20         C  0.05175621  0.41036855  0.86193185     0.97200
C21         C  0.05110505  0.41042471  0.13802353     0.97900
N22         N  0.15674769  0.56790320  0.93932469    -0.07300
N23         N  0.17735633  0.59138950  0.91178847    -0.63600
N24         N  0.13508094  0.59851671  0.05733686    -0.06100
N25         N  0.14039520  0.64042833  0.08620490    -0.64200
N26         N  0.15724612  0.56610649  0.05651017    -0.06800
N27         N  0.17857897  0.58777905  0.08349218    -0.63800
N28         N  0.13417451  0.59924701  0.93911190    -0.05700
N29         N  0.13829739  0.64167506  0.91015650    -0.64500
Mn30       Mn  0.15821873  0.49963455  0.99795637     1.10700
C31         C  0.16499567  0.63693089  0.89273415     0.98500
C32         C  0.16729017  0.63356444  0.10288805     0.98500
N33         N  0.04840956  0.56401551  0.05894557    -0.06800
N34         N  0.03609498  0.56147429  0.10487634    -0.62100
N35         N  0.06924885  0.59752310  0.93602794    -0.06100
N36         N  0.07227246  0.61741006  0.88857643    -0.58900
N37         N  0.04830117  0.56273844  0.93691400    -0.07400
N38         N  0.03640322  0.55904705  0.89033090    -0.61700
N39         N  0.06936297  0.59869465  0.05988097    -0.06400
N40         N  0.07179350  0.62009767  0.10671431    -0.58900
Mn41       Mn  0.04686559  0.50245212  0.99897482     1.20200
Mn42       Mn  0.10153455  0.59940812  0.99828158     1.10100
Cl43       Cl  0.10248326  0.50126623  0.99881567    -0.86900
C44         C  0.05063028  0.59688639  0.13441784     0.95500
C45         C  0.05137773  0.59363697  0.86056938     0.95300
N46         N  0.44125109  0.42343063  0.05616272    -0.07000
N47         N  0.45437918  0.42552326  0.10171721    -0.59100
N48         N  0.41922763  0.38721182  0.93449914    -0.06700
N49         N  0.41634289  0.36297230  0.88915709    -0.61300
N50         N  0.43992172  0.42247164  0.93266109    -0.06300
N51         N  0.45172389  0.42242060  0.88582110    -0.59100
N52         N  0.42039516  0.38852335  0.05788877    -0.06000
N53         N  0.41899762  0.36622063  0.10458935    -0.61600
C54         C  0.44052891  0.38936401  0.13168873     0.95200
C55         C  0.43697660  0.38455905  0.85923538     0.94900
N56         N  0.33228497  0.42066526  0.93719774    -0.07200
N57         N  0.31173094  0.39792929  0.90877211    -0.59700
N58         N  0.35413841  0.38878109  0.05584827    -0.05300
N59         N  0.34783047  0.34542511  0.08222633    -0.61000
N60         N  0.33206792  0.42135266  0.05384878    -0.07200
N61         N  0.30993231  0.39852424  0.07722095    -0.60000
N62         N  0.35477450  0.38923431  0.93755541    -0.05000
N63         N  0.35079897  0.34766567  0.90793124    -0.61100
Mn64       Mn  0.38747613  0.38775385  0.99689870     1.18400
C65         C  0.32419274  0.35282478  0.88967503     0.97200
C66         C  0.32047007  0.35168121  0.09589783     0.97900
N67         N  0.43984320  0.54504835  0.93155712    -0.07300
N68         N  0.45012072  0.54068172  0.88390012    -0.63600
N69         N  0.42181721  0.58266524  0.05591680    -0.06100
N70         N  0.41974274  0.60577358  0.10195291    -0.64200
N71         N  0.44139183  0.54533058  0.05682877    -0.06800
N72         N  0.45263702  0.54190535  0.10421536    -0.63800
N73         N  0.42015105  0.58222161  0.93254362    -0.05700
N74         N  0.41696978  0.60415438  0.88592233    -0.64500
Mn75       Mn  0.44220601  0.48432836  0.99416192     1.10700
C76         C  0.43596220  0.57821504  0.85590688     0.98500
C77         C  0.43932671  0.58059628  0.13169736     0.98500
N78         N  0.33318619  0.55533459  0.05316112    -0.06800
N79         N  0.31154121  0.58423716  0.07090518    -0.62100
N80         N  0.35442106  0.58726746  0.93771369    -0.06100
N81         N  0.34793960  0.63264974  0.91483907    -0.58900
N82         N  0.33208152  0.55510164  0.93863756    -0.07400
N83         N  0.30964463  0.58026127  0.91844115    -0.61700
N84         N  0.35677456  0.58402323  0.05655072    -0.06400
N85         N  0.35196017  0.62933045  0.08003128    -0.58900
Mn86       Mn  0.33140456  0.48781984  0.99559100     1.20200
Mn87       Mn  0.38883092  0.58449367  0.99551379     1.10100
Cl88       Cl  0.38722564  0.48609051  0.99553483    -0.86900
C89         C  0.32380819  0.63024869  0.08830881     0.95500
C90         C  0.32022284  0.62808255  0.90246192     0.95300
N91         N  0.22143628  0.05932064  0.30099242    -0.07000
N92         N  0.21223469  0.09076195  0.33907761    -0.59100
N93         N  0.20016644  0.93933583  0.26888779    -0.06700
N94         N  0.17813485  0.91013140  0.28221376    -0.61300
N95         N  0.22005226  0.93866021  0.30549192    -0.06300
N96         N  0.21103054  0.90928633  0.34548029    -0.59100
N97         N  0.20230161  0.05922891  0.26308891    -0.06000
N98         N  0.18104644  0.09125122  0.27314783    -0.61600
C99         C  0.18728202  0.11122944  0.31996981     0.95200
C100        C  0.18502918  0.89113938  0.32937511     0.94900
N101        N  0.21144473  0.92888609  0.10967285    -0.07200
N102        N  0.21249942  0.87914069  0.09255454    -0.59700
N103        N  0.19603292  0.05848194  0.14511133    -0.05300
N104        N  0.18534443  0.10695650  0.14983247    -0.61000
N105        N  0.21223412  0.05571446  0.10379782    -0.07200
N106        N  0.21258676  0.10212419  0.07905085    -0.60000
N107        N  0.19459312  0.93162509  0.15021720    -0.05000
N108        N  0.18389452  0.88416870  0.16114441    -0.61100
Mn109      Mn  0.19776090  0.99718458  0.20597090     1.18400
C110        C  0.19508999  0.85160536  0.12493770     0.97200
C111        C  0.19567258  0.13355209  0.10816240     0.97900
N112        N  0.29167753  0.93549884  0.29326407    -0.07300
N113        N  0.30721447  0.91346676  0.33124262    -0.63600
N114        N  0.30797763  0.05168322  0.24519354    -0.06100
N115        N  0.33262453  0.07603596  0.24998566    -0.64200
N116        N  0.29328966  0.05415988  0.28882999    -0.06800
N117        N  0.30889574  0.07918872  0.32470242    -0.63800
N118        N  0.30587350  0.93202914  0.24908541    -0.05700
N119        N  0.33005761  0.90670292  0.25591368    -0.64500
Mn120      Mn  0.25658215  0.99703552  0.29961255     1.10700
C121        C  0.33103458  0.89509247  0.30687354     0.98500
C122        C  0.33321939  0.09349101  0.29918655     0.98500
N123        N  0.27666838  0.05479491  0.09474990    -0.06800
N124        N  0.27288641  0.10478142  0.07890740    -0.62100
N125        N  0.29640807  0.92657376  0.13011417    -0.06100
N126        N  0.30807723  0.87876761  0.13239303    -0.58900
N127        N  0.27549889  0.92744962  0.09600361    -0.07400
N128        N  0.27253862  0.88005201  0.07413849    -0.61700
N129        N  0.29831923  0.05245990  0.12735759    -0.06400
N130        N  0.30961325  0.10013790  0.13366254    -0.58900
Mn131      Mn  0.24382967  0.99166532  0.09820831     1.20200
Mn132      Mn  0.30228329  0.99028637  0.18664258     1.10100
Cl133      Cl  0.25020586  0.99395707  0.19892963    -0.86900
C134        C  0.29366827  0.13267526  0.10360954     0.95500
C135        C  0.29311421  0.85041474  0.09707317     0.95300
N136        N  0.21602335  0.06251578  0.88269922    -0.07000
N137        N  0.21642847  0.11068214  0.90434769    -0.59100
N138        N  0.19548182  0.93648180  0.84231277    -0.06700
N139        N  0.18335353  0.88993931  0.83280556    -0.61300
N140        N  0.21285840  0.93290936  0.88242555    -0.06300
N141        N  0.21292997  0.88311446  0.90041171    -0.59100
N142        N  0.19916422  0.06291335  0.84183253    -0.06000
N143        N  0.18778116  0.11055209  0.83500402    -0.61600
C144        C  0.19848269  0.14040911  0.87418955     0.95200
C145        C  0.19419663  0.85671426  0.86924263     0.94900
N146        N  0.22150600  0.93424313  0.68866143    -0.07200
N147        N  0.21199780  0.90362375  0.65005869    -0.59700
N148        N  0.20575261  0.05812699  0.72301496    -0.05300
N149        N  0.18449925  0.08877755  0.70865561    -0.61000
N150        N  0.22501030  0.05439577  0.68585543    -0.07200
N151        N  0.21606785  0.08185288  0.64439652    -0.60000
N152        N  0.20141707  0.93867517  0.72418611    -0.05000
N153        N  0.17868966  0.91101880  0.71145014    -0.61100
Mn154      Mn  0.20012382  0.99935065  0.78383762     1.18400
C155        C  0.18542032  0.88887880  0.66587346     0.97200
C156        C  0.19104595  0.10393819  0.66020145     0.97900
N157        N  0.27744841  0.92725964  0.89660555    -0.07300
N158        N  0.27308643  0.87826466  0.91509582    -0.63600
N159        N  0.30232654  0.05182461  0.86170230    -0.06100
N160        N  0.31474796  0.09836274  0.85443423    -0.64200
N161        N  0.28061273  0.05645441  0.89345755    -0.06800
N162        N  0.27785799  0.10711800  0.90752171    -0.63800
N163        N  0.29919148  0.92691902  0.86464855    -0.05700
N164        N  0.31003721  0.87871010  0.86124813    -0.64500
Mn165      Mn  0.24659966  0.99475693  0.89208438     1.10700
C166        C  0.29369753  0.84834431  0.89254246     0.98500
C167        C  0.29952393  0.13279933  0.88308655     0.98500
N168        N  0.29623448  0.04653745  0.69983087    -0.06800
N169        N  0.31115164  0.07080986  0.66272129    -0.62100
N170        N  0.30784656  0.92624847  0.74588803    -0.06100
N171        N  0.33121247  0.89810599  0.74026991    -0.58900
N172        N  0.29296305  0.92781817  0.70206149    -0.07400
N173        N  0.30717660  0.90185845  0.66534862    -0.61700
N174        N  0.31129150  0.04614068  0.74344713    -0.06400
N175        N  0.33564986  0.07131187  0.73746519    -0.58900
Mn176      Mn  0.25894359  0.99059917  0.69192928     1.20200
Mn177      Mn  0.30534797  0.98774158  0.80529421     1.10100
Cl178      Cl  0.25286158  0.99302552  0.79216320    -0.86900
C179        C  0.33538795  0.08696198  0.68750599     0.95500
C180        C  0.33071628  0.88256319  0.69037709     0.95300
N181        N  0.04424633  0.20940328  0.43695962    -0.07000
N182        N  0.05882812  0.17235216  0.41159135    -0.59100
N183        N  0.05926745  0.25134160  0.55473902    -0.06700
N184        N  0.08414041  0.24456970  0.57746584    -0.61300
N185        N  0.04501105  0.20581896  0.55229674    -0.06300
N186        N  0.06124988  0.16701632  0.57199614    -0.59100
N187        N  0.05913574  0.25426469  0.43765875    -0.06000
N188        N  0.08297368  0.24908048  0.41153174    -0.61600
C189        C  0.08262854  0.19838197  0.39499193     0.95200
C190        C  0.08550308  0.19226057  0.58819950     0.94900
N191        N  0.02761564  0.40685651  0.56026042    -0.07200
N192        N  0.02491557  0.42908983  0.60651217    -0.59700
N193        N  0.04974895  0.37680954  0.43736862    -0.05300
N194        N  0.06229885  0.37665087  0.39143433    -0.61000
N195        N  0.02800364  0.40971928  0.43705375    -0.07200
N196        N  0.02532963  0.43222312  0.39055793    -0.60000
N197        N  0.04925356  0.37376145  0.56050561    -0.05000
N198        N  0.06165817  0.37301720  0.60690893    -0.61100
Mn199      Mn  0.05454697  0.31518197  0.49770976     1.18400
C200        C  0.04639609  0.40808937  0.63538003     0.97200
C201        C  0.04727729  0.41220842  0.36283712     0.97900
N202        N  0.47291986  0.19179535  0.55267016    -0.07300
N203        N  0.46419396  0.15141269  0.58257218    -0.63600
N204        N  0.45323800  0.23161301  0.43499600    -0.06100
N205        N  0.43117937  0.21811254  0.40638074    -0.64200
N206        N  0.47288075  0.19395707  0.43513718    -0.06800
N207        N  0.46349643  0.15293259  0.40702381    -0.63800
N208        N  0.45305731  0.22902732  0.55185492    -0.05700
N209        N  0.43157751  0.21620741  0.58170497    -0.64500
Mn210      Mn  0.50874226  0.19796467  0.49436243     1.10700
C211        C  0.43855226  0.16840542  0.60108300     0.98500
C212        C  0.43768326  0.16966240  0.38860018     0.98500
N213        N  0.46330535  0.39442791  0.43442726    -0.06800
N214        N  0.46404266  0.41604591  0.38721944    -0.62100
N215        N  0.44541394  0.34922170  0.55690394    -0.06100
N216        N  0.43343657  0.33915566  0.60239591    -0.58900
N217        N  0.46295034  0.38994538  0.56015113    -0.07400
N218        N  0.46356684  0.40764270  0.60870883    -0.61700
N219        N  0.44629007  0.35284841  0.43425269    -0.06400
N220        N  0.43508857  0.34564687  0.38756807    -0.58900
Mn221      Mn  0.49520272  0.40301800  0.49805398     1.20200
Mn222      Mn  0.44920157  0.29158502  0.49434300     1.10100
Cl223      Cl  0.50212639  0.30078872  0.49612956    -0.86900
C224        C  0.44608156  0.38541840  0.35834929     0.95500
C225        C  0.44463758  0.37619350  0.63436573     0.95300
N226        N  0.02942340  0.57632729  0.43465971    -0.07000
N227        N  0.02666523  0.55787758  0.38663988    -0.59100
N228        N  0.05015814  0.60951531  0.55843780    -0.06700
N229        N  0.06203508  0.61393631  0.60488559    -0.61300
N230        N  0.02844402  0.57636964  0.55974512    -0.06300
N231        N  0.02492223  0.55859975  0.60795494    -0.59100
N232        N  0.05071148  0.61037594  0.43662772    -0.06000
N233        N  0.06289226  0.61513237  0.39069870    -0.61600
C234        C  0.04793352  0.58198129  0.35969657     0.95200
C235        C  0.04634367  0.58173354  0.63552869     0.94900
N236        N  0.04249395  0.77535554  0.55586248    -0.07200
N237        N  0.05758745  0.81440868  0.57770397    -0.59700
N238        N  0.05831347  0.73251753  0.43993818    -0.05300
N239        N  0.08277948  0.74019653  0.41650220    -0.61000
N240        N  0.04311616  0.77684254  0.44058855    -0.07200
N241        N  0.05818955  0.81597877  0.41870814    -0.60000
N242        N  0.05782306  0.73117173  0.55667006    -0.05000
N243        N  0.08238005  0.73888670  0.58029511    -0.61100
Mn244      Mn  0.05432273  0.66956028  0.49782046     1.18400
C245        C  0.08229247  0.79056234  0.59342243     0.97200
C246        C  0.08270080  0.79187476  0.40295628     0.97900
N247        N  0.46321517  0.58385114  0.55667033    -0.07300
N248        N  0.46245658  0.56087139  0.60321799    -0.63600
N249        N  0.44723262  0.62587700  0.43202342    -0.06100
N250        N  0.43550575  0.63237658  0.38554059    -0.64200
N251        N  0.46424322  0.58438276  0.43241152    -0.06800
N252        N  0.46420303  0.56157004  0.38588879    -0.63800
N253        N  0.44600068  0.62498352  0.55550096    -0.05700
N254        N  0.43339196  0.63106980  0.60097776    -0.64500
Mn255      Mn  0.49633941  0.57716991  0.49593605     1.10700
C256        C  0.44350968  0.59050686  0.63040683     0.98500
C257        C  0.44585683  0.59160373  0.35720281     0.98500
N258        N  0.47117020  0.78691152  0.43758998    -0.06800
N259        N  0.46116976  0.82889008  0.41141064    -0.62100
N260        N  0.45107898  0.74622741  0.55329626    -0.06100
N261        N  0.42885291  0.75744862  0.58189032    -0.58900
N262        N  0.47024320  0.78488795  0.55486392    -0.07400
N263        N  0.46026863  0.82448088  0.58396523    -0.61700
N264        N  0.45190628  0.74836703  0.43644062    -0.06400
N265        N  0.42944597  0.76253999  0.40910968    -0.58900
Mn266      Mn  0.50668273  0.78315050  0.49731206     1.20200
Mn267      Mn  0.44878837  0.68547800  0.49412125     1.10100
Cl268      Cl  0.50161368  0.68001976  0.49622427    -0.86900
C269        C  0.43534295  0.81217821  0.39309342     0.95500
C270        C  0.43466442  0.80566524  0.60125973     0.95300
C271        C  0.35708700  0.86210280  0.66583225    -0.06400
C272        C  0.36652924  0.88253780  0.61785437    -0.33800
C273        C  0.39368562  0.86930961  0.59868387     0.35400
C274        C  0.41182166  0.83523770  0.62751204    -0.06700
C275        C  0.40228688  0.81488147  0.67521017    -0.33700
C276        C  0.37547357  0.82847727  0.69469710     0.35400
H277        H  0.35303149  0.90930606  0.59553853     0.15700
O278        O  0.40150053  0.88687554  0.55016458    -0.61200
H279        H  0.41520999  0.78619687  0.69643479     0.15700
O280        O  0.36687529  0.80668979  0.74114796    -0.61300
H281        H  0.37703886  0.82736565  0.76842913     0.42700
H282        H  0.41291214  0.91961314  0.55642448     0.42700
C283        C  0.16311380  0.86209388  0.63516831    -0.06400
C284        C  0.14154900  0.89364428  0.61245893    -0.33800
C285        C  0.11490492  0.87161546  0.59911004     0.35400
C286        C  0.10929314  0.81734710  0.60937485    -0.06700
C287        C  0.13134777  0.78567263  0.63058805    -0.33700
C288        C  0.15785320  0.80772290  0.64386870     0.35400
H289        H  0.14488617  0.93618162  0.60757352     0.15700
O290        O  0.09450819  0.90367415  0.57689507    -0.61200
H291        H  0.12784590  0.74359786  0.63813105     0.15700
O292        O  0.17804258  0.77636225  0.66776574    -0.61300
H293        H  0.17318519  0.77677810  0.70531174     0.42700
H294        H  0.09766998  0.90108217  0.53883295     0.42700
C295        C  0.36167041  0.10751539  0.66326880    -0.06400
C296        C  0.37569052  0.07833913  0.62443731    -0.33800
C297        C  0.40314731  0.09343367  0.60770640     0.35400
C298        C  0.41674996  0.13816448  0.62988664    -0.06700
C299        C  0.40296734  0.16579294  0.66989749    -0.33700
C300        C  0.37581133  0.15089358  0.68648213     0.35400
H301        H  0.36552380  0.04354525  0.60759100     0.15700
O302        O  0.41559339  0.06662624  0.56738600    -0.61200
H303        H  0.41263150  0.20140737  0.68618785     0.15700
O304        O  0.36297819  0.17976292  0.72499714    -0.61300
H305        H  0.35030268  0.20537779  0.70658764     0.42700
H306        H  0.42501034  0.03536987  0.58375494     0.42700
C307        C  0.16855527  0.12776945  0.62747004    -0.06400
C308        C  0.14732172  0.09394370  0.60683732    -0.33800
C309        C  0.11996382  0.11346368  0.59419288     0.35400
C310        C  0.11338083  0.16755816  0.60277643    -0.06700
C311        C  0.13515687  0.20141860  0.62161002    -0.33700
C312        C  0.16227354  0.18191613  0.63422549     0.35400
H313        H  0.15137904  0.05151854  0.60374507     0.15700
O314        O  0.09973776  0.07903710  0.57512258    -0.61200
H315        H  0.13099962  0.24337235  0.62804261     0.15700
O316        O  0.18215021  0.21562291  0.65579171    -0.61300
H317        H  0.17675386  0.21887866  0.69294881     0.42700
H318        H  0.10357298  0.07671345  0.53720776     0.42700
C319        C  0.35841548  0.87770011  0.33154206    -0.06400
C320        C  0.38208470  0.86834937  0.29890515    -0.33800
C321        C  0.40856911  0.85269875  0.31914939     0.35400
C322        C  0.41205311  0.84587157  0.37290540    -0.06700
C323        C  0.38886486  0.85655530  0.40591820    -0.33700
C324        C  0.36225985  0.87254605  0.38572962     0.35400
H325        H  0.38005170  0.87208330  0.25701605     0.15700
O326        O  0.43024291  0.84013357  0.28573779    -0.61200
H327        H  0.39097236  0.84952384  0.44742800     0.15700
O328        O  0.34018298  0.88183026  0.41924104    -0.61300
H329        H  0.33030747  0.84704510  0.42293164     0.42700
H330        H  0.44107601  0.87372954  0.28099404     0.42700
C331        C  0.16314129  0.86381593  0.36049379    -0.06400
C332        C  0.15710887  0.81070214  0.34823575    -0.33800
C333        C  0.13069573  0.78798717  0.36042258     0.35400
C334        C  0.10950123  0.81831921  0.38577938    -0.06700
C335        C  0.11575844  0.87134650  0.39920111    -0.33700
C336        C  0.14229596  0.89415109  0.38643710     0.35400
H337        H  0.17225081  0.78769074  0.32588253     0.15700
O338        O  0.12550609  0.73630104  0.34570128    -0.61200
H339        H  0.10007809  0.89519458  0.41930648     0.15700
O340        O  0.14685025  0.94730815  0.39580254    -0.61300
H341        H  0.15637523  0.94861315  0.43032935     0.42700
H342        H  0.11747410  0.73889323  0.30996700     0.42700
C343        C  0.36055820  0.11165535  0.32292948    -0.06400
C344        C  0.36645378  0.10294463  0.37591728    -0.33800
C345        C  0.39339833  0.11556112  0.39688199     0.35400
C346        C  0.41499011  0.13712433  0.36488047    -0.06700
C347        C  0.40930404  0.14477458  0.31194817    -0.33700
C348        C  0.38253311  0.13226826  0.29086022     0.35400
H349        H  0.35020908  0.08637650  0.40112932     0.15700
O350        O  0.39781466  0.11022688  0.44948256    -0.61200
H351        H  0.42511306  0.16376783  0.28736774     0.15700
O352        O  0.37793482  0.14146296  0.23877480    -0.61300
H353        H  0.37501856  0.18055537  0.23556313     0.42700
H354        H  0.40678250  0.07471395  0.45397213     0.42700
C355        C  0.16449299  0.13880748  0.34846252    -0.06400
C356        C  0.15246504  0.18385688  0.32433438    -0.33800
C357        C  0.12515506  0.20149826  0.33740156     0.35400
C358        C  0.10899157  0.17381321  0.37489337    -0.06700
C359        C  0.12092746  0.12881343  0.39944163    -0.33700
C360        C  0.14853189  0.11135565  0.38650413     0.35400
H361        H  0.16378169  0.20391336  0.29313952     0.15700
O362        O  0.11422360  0.24570852  0.31276357    -0.61200
H363        H  0.10908177  0.10775628  0.42928231     0.15700
O364        O  0.15890592  0.06531662  0.40842807    -0.61300
H365        H  0.16607665  0.07585552  0.44332342     0.42700
H366        H  0.10439418  0.23189035  0.28132960     0.42700
C367        C  0.31010981  0.68333151  0.08624975    -0.06400
C368        C  0.32098431  0.71977779  0.04929624    -0.33800
C369        C  0.31446908  0.77387761  0.05132608     0.35400
C370        C  0.29649047  0.79271240  0.09025886    -0.06700
C371        C  0.28447773  0.75657274  0.12617990    -0.33700
C372        C  0.29116099  0.70182792  0.12424880     0.35400
H373        H  0.33567312  0.70645297  0.01961326     0.15700
O374        O  0.32662770  0.80840699  0.01619883    -0.61200
H375        H  0.27084885  0.77117763  0.15690489     0.15700
O376        O  0.28099886  0.66791447  0.16184364    -0.61300
H377        H  0.26203029  0.65622763  0.14887464     0.42700
H378        H  0.34547297  0.81776624  0.03129215     0.42700
C379        C  0.30382161  0.30357915  0.10901001    -0.06400
C380        C  0.31477370  0.27138611  0.14892629    -0.33800
C381        C  0.31055347  0.21624826  0.14868313     0.35400
C382        C  0.29495282  0.19186687  0.10784988    -0.06700
C383        C  0.28113629  0.22479267  0.07118018    -0.33700
C384        C  0.28571286  0.28031447  0.07130270     0.35400
H385        H  0.32910594  0.28839822  0.17771632     0.15700
O386        O  0.32345574  0.18644374  0.18694430    -0.61200
H387        H  0.26841826  0.20725954  0.04029657     0.15700
O388        O  0.27507939  0.31044844  0.03105602    -0.61300
H389        H  0.29113309  0.31417539  0.00637173     0.42700
H390        H  0.30952901  0.18520428  0.21595033     0.42700
C391        C  0.29457730  0.78884501  0.89091570    -0.06400
C392        C  0.28404435  0.75739514  0.93198335    -0.33800
C393        C  0.28840960  0.70150295  0.93275342     0.35400
C394        C  0.30370561  0.67707736  0.89220558    -0.06700
C395        C  0.31178878  0.70780938  0.84922096    -0.33700
C396        C  0.30703054  0.76275926  0.84790962     0.35400
H397        H  0.27387507  0.77641943  0.96479048     0.15700
O398        O  0.28095448  0.67168212  0.97570848    -0.61200
H399        H  0.32386183  0.68971782  0.81806646     0.15700
O400        O  0.31598201  0.79082509  0.80505471    -0.61300
H401        H  0.29878182  0.79474803  0.78274346     0.42700
H402        H  0.26274774  0.68622367  0.98894102     0.42700
C403        C  0.31031368  0.30384436  0.86971599    -0.06400
C404        C  0.32842259  0.26864656  0.84334914    -0.33800
C405        C  0.32542893  0.21351927  0.84861015     0.35400
C406        C  0.30250778  0.19179805  0.87719263    -0.06700
C407        C  0.28220044  0.22706670  0.89782590    -0.33700
C408        C  0.28585168  0.28281771  0.89377415     0.35400
H409        H  0.34745898  0.28379584  0.82456121     0.15700
O410        O  0.34634998  0.18154112  0.82866246    -0.61200
H411        H  0.26420839  0.21136245  0.91899210     0.15700
O412        O  0.26693165  0.31602562  0.91772142    -0.61300
H413        H  0.25590080  0.33292101  0.88895982     0.42700
H414        H  0.36087496  0.17846020  0.85669095     0.42700
C415        C  0.43932642  0.58659551  0.68776587    -0.06400
C416        C  0.43276272  0.63236797  0.71688102    -0.33800
C417        C  0.43124300  0.63019242  0.77153278     0.35400
C418        C  0.43645401  0.58178772  0.79808991    -0.06700
C419        C  0.44194960  0.53574828  0.76877754    -0.33700
C420        C  0.44311923  0.53793771  0.71429647     0.35400
H421        H  0.42955560  0.67033280  0.69739636     0.15700
O422        O  0.42527402  0.67585685  0.79856763    -0.61200
H423        H  0.44531395  0.49779922  0.78818511     0.15700
O424        O  0.44762266  0.49198439  0.68717641    -0.61300
H425        H  0.42904303  0.48387645  0.67022452     0.42700
H426        H  0.44410541  0.69228355  0.80616254     0.42700
C427        C  0.43988749  0.58442106  0.18943409    -0.06400
C428        C  0.44964515  0.63095151  0.21403290    -0.33800
C429        C  0.45139968  0.63366751  0.26865595     0.35400
C430        C  0.44344364  0.58938436  0.29957150    -0.06700
C431        C  0.43271480  0.54367047  0.27498655    -0.33700
C432        C  0.43026693  0.54160317  0.22042108     0.35400
H433        H  0.45661692  0.66469411  0.19082052     0.15700
O434        O  0.46212893  0.67893893  0.29142102    -0.61200
H435        H  0.42555895  0.51007522  0.29820034     0.15700
O436        O  0.41764964  0.49815738  0.19762419    -0.61300
H437        H  0.39724899  0.50779993  0.19357192     0.42700
H438        H  0.44554385  0.70307213  0.29520155     0.42700
C439        C  0.44206278  0.37334718  0.69187898    -0.06400
C440        C  0.41573126  0.38227454  0.71587961    -0.33800
C441        C  0.41366411  0.38382776  0.77046568     0.35400
C442        C  0.43828790  0.37746819  0.80185330    -0.06700
C443        C  0.46421299  0.36521201  0.77777226    -0.33700
C444        C  0.46592059  0.36132967  0.72328318     0.35400
H445        H  0.39692209  0.38966608  0.69226259     0.15700
O446        O  0.38778696  0.39467197  0.79263693    -0.61200
H447        H  0.48303795  0.35781848  0.80132515     0.15700
O448        O  0.49090662  0.34501513  0.70098474    -0.61300
H449        H  0.48824712  0.30649750  0.69391573     0.42700
H450        H  0.37786270  0.35983824  0.79465214     0.42700
C451        C  0.44372031  0.38554617  0.18945701    -0.06400
C452        C  0.42582732  0.35135723  0.21795446    -0.33800
C453        C  0.42611102  0.35127761  0.27262682     0.35400
C454        C  0.44431881  0.38636264  0.30031114    -0.06700
C455        C  0.46244734  0.42001524  0.27178851    -0.33700
C456        C  0.46246988  0.41945298  0.21722336     0.35400
H457        H  0.41110343  0.32507055  0.19786924     0.15700
O458        O  0.40792354  0.31748795  0.29843295    -0.61200
H459        H  0.47677984  0.44710142  0.29182445     0.15700
O460        O  0.47948162  0.45536516  0.19173587    -0.61300
H461        H  0.49335089  0.43389823  0.17246893     0.42700
H462        H  0.41773825  0.28249506  0.29918871     0.42700
C463        C  0.17912333  0.68571052  0.87207650    -0.06400
C464        C  0.16238503  0.71958109  0.84068424    -0.33800
C465        C  0.16752303  0.77463570  0.83843118     0.35400
C466        C  0.18986711  0.79749224  0.86809127    -0.06700
C467        C  0.20832202  0.76287199  0.89545894    -0.33700
C468        C  0.20338968  0.70729936  0.89662021     0.35400
H469        H  0.14355874  0.70391941  0.82131829     0.15700
O470        O  0.14953245  0.80587359  0.80909281    -0.61200
H471        H  0.22613228  0.77909412  0.91715656     0.15700
O472        O  0.22096546  0.67516688  0.92554813    -0.61300
H473        H  0.23307233  0.65670463  0.89977618     0.42700
H474        H  0.13323687  0.81393598  0.83217784     0.42700
C475        C  0.18282378  0.31126860  0.88733070    -0.06400
C476        C  0.17245007  0.28222113  0.84478053    -0.33800
C477        C  0.17794087  0.22751677  0.83965018     0.35400
C478        C  0.19393518  0.19970736  0.87806387    -0.06700
C479        C  0.20545780  0.22944769  0.91966546    -0.33700
C480        C  0.20039977  0.28476841  0.92410209     0.35400
H481        H  0.15836713  0.30141870  0.81683369     0.15700
O482        O  0.16664846  0.20146271  0.79743228    -0.61200
H483        H  0.21773845  0.20952331  0.94978002     0.15700
O484        O  0.21232473  0.31192315  0.96522241    -0.61300
H485        H  0.19636509  0.32694976  0.98536790     0.42700
H486        H  0.14659668  0.19341744  0.80691506     0.42700
C487        C  0.18309475  0.68078167  0.12151897    -0.06400
C488        C  0.16981345  0.71156240  0.15981158    -0.33800
C489        C  0.17427254  0.76669613  0.16258173     0.35400
C490        C  0.19248331  0.79234475  0.12657410    -0.06700
C491        C  0.20816892  0.76057000  0.09192142    -0.33700
C492        C  0.20359235  0.70517540  0.08930671     0.35400
H493        H  0.15372909  0.69359298  0.18453726     0.15700
O494        O  0.15961590  0.79520955  0.19920248    -0.61200
H495        H  0.22300831  0.77890950  0.06500825     0.15700
O496        O  0.21718246  0.67624894  0.05174715    -0.61300
H497        H  0.20412192  0.67706477  0.02118615     0.42700
H498        H  0.14055032  0.80176129  0.18362344     0.42700
C499        C  0.19237939  0.19147200  0.10008128    -0.06400
C500        C  0.17515570  0.20926599  0.05929165    -0.33800
C501        C  0.16832051  0.26324026  0.05452258     0.35400
C502        C  0.17963594  0.30129192  0.08990187    -0.06700
C503        C  0.19859685  0.28382240  0.12882775    -0.33700
C504        C  0.20483694  0.22901741  0.13426073     0.35400
H505        H  0.16571816  0.18085916  0.03250724     0.15700
O506        O  0.14991622  0.27850254  0.01543275    -0.61200
H507        H  0.20728111  0.31201192  0.15658483     0.15700
O508        O  0.22301629  0.21245897  0.17308098    -0.61300
H509        H  0.21055324  0.20338919  0.20298931     0.42700
H510        H  0.13078229  0.26614785  0.02659839     0.42700
C511        C  0.04992307  0.59395899  0.80293512    -0.06400
C512        C  0.07499649  0.59776644  0.77347568    -0.33800
C513        C  0.07413701  0.59286924  0.71903826     0.35400
C514        C  0.04793513  0.58409784  0.69317893    -0.06700
C515        C  0.02281945  0.58263044  0.72263767    -0.33700
C516        C  0.02381426  0.58627784  0.77700670     0.35400
H517        H  0.09541831  0.60305684  0.79274136     0.15700
O518        O  0.09912693  0.59525761  0.69159862    -0.61200
H519        H  0.00229787  0.57902400  0.70346537     0.15700
O520        O  0.99902085  0.58364435  0.80461989    -0.61300
H521        H  0.49660844  0.54526848  0.81317311     0.42700
H522        H  0.10321922  0.63383580  0.68724250     0.42700
C523        C  0.04938693  0.58466646  0.30197852    -0.06400
C524        C  0.02642192  0.56574921  0.27208075    -0.33800
C525        C  0.02602968  0.57220748  0.21799184     0.35400
C526        C  0.04894190  0.59733723  0.19219510    -0.06700
C527        C  0.07179327  0.61691229  0.22204641    -0.33700
C528        C  0.07224949  0.61044797  0.27632865     0.35400
H529        H  0.00841716  0.54648785  0.29066851     0.15700
O530        O  0.00315231  0.55295557  0.19066866    -0.61200
H531        H  0.08984108  0.63577717  0.20323065     0.15700
O532        O  0.09527060  0.62937730  0.30379066    -0.61300
H533        H  0.10914025  0.59957341  0.30442866     0.42700
H534        H  0.99567139  0.58393055  0.17079211     0.42700
C535        C  0.05099086  0.40999011  0.80392506    -0.06400
C536        C  0.02855629  0.43566423  0.77764329    -0.33800
C537        C  0.02734508  0.43738741  0.72316375     0.35400
C538        C  0.04886964  0.41298979  0.69318560    -0.06700
C539        C  0.07179618  0.38866583  0.71950497    -0.33700
C540        C  0.07306314  0.38719943  0.77415206     0.35400
H541        H  0.01131294  0.45334253  0.79945495     0.15700
O542        O  0.00344905  0.45841000  0.70019926    -0.61200
H543        H  0.08869174  0.36984550  0.69767124     0.15700
O544        O  0.09595921  0.36303669  0.79780800    -0.61300
H545        H  0.11069120  0.39131175  0.80077833     0.42700
H546        H  0.50997637  0.49019719  0.68076052     0.42700
C547        C  0.04808395  0.41270871  0.30541197    -0.06400
C548        C  0.06718091  0.44597852  0.27879542    -0.33800
C549        C  0.06865494  0.44479559  0.22420436     0.35400
C550        C  0.05078579  0.41006619  0.19561576    -0.06700
C551        C  0.03235314  0.37569640  0.22243933    -0.33700
C552        C  0.03095133  0.37681694  0.27697610     0.35400
H553        H  0.08107430  0.47260320  0.30037631     0.15700
O554        O  0.08848371  0.47607561  0.19942807    -0.61200
H555        H  0.01876611  0.34838647  0.20102433     0.15700
O556        O  0.01260561  0.34293092  0.30230640    -0.61300
H557        H  0.52268146  0.30812577  0.30408449     0.42700
H558        H  0.07740030  0.50310535  0.17961788     0.42700
N559        N  0.65734877  0.43107431  0.05582918    -0.07000
N560        N  0.67905218  0.40091707  0.07220568    -0.59100
N561        N  0.63428703  0.40002954  0.94169272    -0.06700
N562        N  0.63979022  0.35536332  0.91713852    -0.61300
N563        N  0.65665966  0.43216357  0.94091593    -0.06300
N564        N  0.67825170  0.40756614  0.91768813    -0.59100
N565        N  0.63352747  0.40339668  0.06093478    -0.06000
N566        N  0.63832366  0.35777824  0.08442474    -0.61600
C567        C  0.66662141  0.35532901  0.09068228     0.95200
C568        C  0.66698338  0.36016183  0.90178173     0.94900
N569        N  0.54798567  0.44100492  0.93821336    -0.07200
N570        N  0.53679223  0.44525276  0.89101076    -0.59700
N571        N  0.56856654  0.40670260  0.06260024    -0.05300
N572        N  0.57136901  0.38587337  0.10978278    -0.61000
N573        N  0.54827240  0.44263316  0.06194674    -0.07200
N574        N  0.53692899  0.44682788  0.10880525    -0.60000
N575        N  0.56854589  0.40555676  0.93835316    -0.05000
N576        N  0.57179378  0.38551898  0.89122574    -0.58700
Mn577      Mn  0.60065664  0.40340065  0.00083764     1.18400
C578        C  0.55175693  0.41036285  0.86193461     0.97200
C579        C  0.55111260  0.41042121  0.13802525     0.97900
N580        N  0.65674755  0.56790815  0.93932011    -0.07300
N581        N  0.67735561  0.59139389  0.91178239    -0.63600
N582        N  0.63508225  0.59851831  0.05733504    -0.06100
N583        N  0.64039586  0.64042833  0.08620570    -0.64200
N584        N  0.65724800  0.56610950  0.05650596    -0.06800
N585        N  0.67858051  0.58778152  0.08348916    -0.63800
N586        N  0.63417462  0.59925267  0.93911012    -0.05700
N587        N  0.63829733  0.64168156  0.91015543    -0.64500
Mn588      Mn  0.65822123  0.49963905  0.99795004     1.10700
C589        C  0.66499506  0.63693602  0.89273021     0.98500
C590        C  0.66729103  0.63356498  0.10288805     0.98500
N591        N  0.54841153  0.56401217  0.05894770    -0.06800
N592        N  0.53609757  0.56146962  0.10487902    -0.62100
N593        N  0.56924837  0.59752257  0.93602921    -0.06100
N594        N  0.57227119  0.61740946  0.88857753    -0.58900
N595        N  0.54830171  0.56273564  0.93691576    -0.07400
N596        N  0.53640378  0.55904258  0.89033274    -0.61700
N597        N  0.56936426  0.59869275  0.05988246    -0.06400
N598        N  0.57179490  0.62009556  0.10671590    -0.58900
Mn599      Mn  0.54686826  0.50244901  0.99897678     1.20200
Mn600      Mn  0.60153504  0.59940971  0.99828136     1.10100
Cl601      Cl  0.60248584  0.50126757  0.99881370    -0.86900
C602        C  0.55063251  0.59688250  0.13442018     0.95500
C603        C  0.55137715  0.59363389  0.86057080     0.95300
N604        N  0.94125047  0.42343723  0.05616644    -0.07000
N605        N  0.95437780  0.42553007  0.10172166    -0.59100
N606        N  0.91923061  0.38721626  0.93450204    -0.06700
N607        N  0.91634774  0.36297464  0.88916081    -0.61300
N608        N  0.93992357  0.42247837  0.93266439    -0.06300
N609        N  0.95172671  0.42242720  0.88582520    -0.59100
N610        N  0.92039544  0.38852797  0.05789089    -0.06000
N611        N  0.91899772  0.36622412  0.10459103    -0.61600
C612        C  0.94052796  0.38936903  0.13169194     0.95200
C613        C  0.93698129  0.38456277  0.85923979     0.94900
N614        N  0.83228676  0.42066447  0.93719495    -0.07200
N615        N  0.81173336  0.39792616  0.90876961    -0.59700
N616        N  0.85413934  0.38878155  0.05584617    -0.05300
N617        N  0.84783217  0.34542535  0.08222448    -0.61000
N618        N  0.83206833  0.42135178  0.05384622    -0.07200
N619        N  0.80993316  0.39852219  0.07721857    -0.60000
N620        N  0.85477713  0.38923552  0.93755309    -0.05000
N621        N  0.85080270  0.34766625  0.90792925    -0.61100
Mn622      Mn  0.88747775  0.38775673  0.99689869     1.18400
C623        C  0.82419632  0.35282255  0.88967304     0.97200
C624        C  0.82047170  0.35167998  0.09589601     0.97900
N625        N  0.93984212  0.54505586  0.93156063    -0.07300
N626        N  0.95012086  0.54069071  0.88390444    -0.63600
N627        N  0.92181356  0.58267090  0.05591936    -0.06100
N628        N  0.91973847  0.60577914  0.10195548    -0.64200
N629        N  0.94138897  0.54533772  0.05683169    -0.06800
N630        N  0.95263425  0.54191366  0.10421821    -0.63800
N631        N  0.92014941  0.58222815  0.93254620    -0.05700
N632        N  0.91696900  0.60416182  0.88592506    -0.64500
Mn633      Mn  0.94220528  0.48433553  0.99416530     1.10700
C634        C  0.93596261  0.57822406  0.85591080     0.98500
C635        C  0.93932314  0.58060367  0.13169999     0.98500
N636        N  0.83318342  0.55533343  0.05315913    -0.06800
N637        N  0.81153760  0.58423288  0.07090445    -0.62100
N638        N  0.85441895  0.58726910  0.93771235    -0.06100
N639        N  0.84793729  0.63265021  0.91483558    -0.58900
N640        N  0.83208011  0.55510153  0.93863456    -0.07400
N641        N  0.80964335  0.58025878  0.91843452    -0.61700
N642        N  0.85677087  0.58402457  0.05654947    -0.06400
N643        N  0.85195510  0.62933066  0.08003120    -0.58900
Mn644      Mn  0.83140395  0.48781904  0.99558832     1.20200
Mn645      Mn  0.88882810  0.58449757  0.99551446     1.10100
Cl646      Cl  0.88722501  0.48609383  0.99553495    -0.86900
C647        C  0.82380319  0.63024500  0.08830983     0.95500
C648        C  0.82022106  0.62808052  0.90245508     0.95300
N649        N  0.72143550  0.05932428  0.30098615    -0.07000
N650        N  0.71223365  0.09076531  0.33907129    -0.59100
N651        N  0.70016645  0.93933770  0.26888228    -0.06700
N652        N  0.67813533  0.91013157  0.28220742    -0.61300
N653        N  0.72005187  0.93866375  0.30548724    -0.06300
N654        N  0.71103015  0.90928959  0.34547545    -0.59100
N655        N  0.70230061  0.05923111  0.26308301    -0.06000
N656        N  0.68104490  0.09125217  0.27314230    -0.61600
C657        C  0.68728055  0.11123118  0.31996398     0.95200
C658        C  0.68502939  0.89114041  0.32936927     0.94900
N659        N  0.71144543  0.92888636  0.10966801    -0.07200
N660        N  0.71249993  0.87914070  0.09255048    -0.59700
N661        N  0.69603418  0.05848361  0.14510451    -0.05300
N662        N  0.68534703  0.10695937  0.14982522    -0.61000
N663        N  0.71223532  0.05571427  0.10379096    -0.07200
N664        N  0.71258903  0.10212365  0.07904347    -0.60000
N665        N  0.69459340  0.93162649  0.15021169    -0.05000
N666        N  0.68389437  0.88417056  0.16113928    -0.61100
Mn667      Mn  0.69776097  0.99718643  0.20596490     1.18400
C668        C  0.69509004  0.85160635  0.12493359     0.97200
C669        C  0.69567575  0.13355356  0.10815466     0.97900
N670        N  0.79167717  0.93550416  0.29326301    -0.07300
N671        N  0.80721405  0.91347497  0.33124324    -0.63600
N672        N  0.80797728  0.05168714  0.24518777    -0.06100
N673        N  0.83262413  0.07604034  0.24997928    -0.64200
N674        N  0.79328914  0.05416488  0.28882400    -0.06800
N675        N  0.80889516  0.07919478  0.32469580    -0.63800
N676        N  0.80587364  0.93203307  0.24908504    -0.05700
N677        N  0.83005818  0.90670892  0.25591557    -0.64500
Mn678      Mn  0.75658160  0.99704010  0.29960793     1.10700
C679        C  0.83103480  0.89510116  0.30687599     0.98500
C680        C  0.83321884  0.09349663  0.29917971     0.98500
N681        N  0.77666974  0.05479331  0.09474467    -0.06800
N682        N  0.77288810  0.10477970  0.07890160    -0.62100
N683        N  0.79640848  0.92657264  0.13011407    -0.06100
N684        N  0.80807688  0.87876596  0.13239603    -0.58900
N685        N  0.77550011  0.92744818  0.09600179    -0.07400
N686        N  0.77253995  0.88004987  0.07413808    -0.61700
N687        N  0.79832049  0.05245831  0.12735253    -0.06400
N688        N  0.80961484  0.10013606  0.13365696    -0.58900
Mn689      Mn  0.74383078  0.99166447  0.09820353     1.20200
Mn690      Mn  0.80228356  0.99028744  0.18663972     1.10100
Cl691      Cl  0.75020599  0.99395881  0.19892505    -0.86900
C692        C  0.79367009  0.13267330  0.10360363     0.95500
C693        C  0.79311454  0.85041243  0.09707578     0.95300
N694        N  0.71602321  0.06251843  0.88269442    -0.07000
N695        N  0.71642909  0.11068511  0.90434240    -0.59100
N696        N  0.69548053  0.93648487  0.84230634    -0.06700
N697        N  0.68335295  0.88994208  0.83279769    -0.61300
N698        N  0.71285676  0.93291227  0.88241957    -0.06300
N699        N  0.71292863  0.88311722  0.90040489    -0.59100
N700        N  0.69916366  0.06291630  0.84182827    -0.06000
N701        N  0.68778104  0.11055543  0.83499980    -0.61600
C702        C  0.69848326  0.14041257  0.87418466     0.95200
C703        C  0.69419613  0.85671691  0.86923451     0.94900
N704        N  0.72150507  0.93424774  0.68865492    -0.07200
N705        N  0.71199694  0.90362879  0.65005180    -0.59700
N706        N  0.70575248  0.05813130  0.72301153    -0.05300
N707        N  0.68449967  0.08878381  0.70865376    -0.61000
N708        N  0.72500994  0.05440018  0.68585164    -0.07200
N709        N  0.71606780  0.08185914  0.64439378    -0.60000
N710        N  0.70141610  0.93867959  0.72417958    -0.05000
N711        N  0.67868866  0.91102363  0.71144306    -0.61100
Mn712      Mn  0.70012294  0.99935418  0.78383240     1.18400
C713        C  0.68541940  0.88888406  0.66586619     0.97200
C714        C  0.69104647  0.10394558  0.66020003     0.97900
N715        N  0.77744655  0.92725774  0.89659715    -0.07300
N716        N  0.77308384  0.87826194  0.91508489    -0.63600
N717        N  0.80232631  0.05182232  0.86169850    -0.06100
N718        N  0.81474923  0.09835935  0.85443307    -0.64200
N719        N  0.78061263  0.05645264  0.89345384    -0.06800
N720        N  0.77785934  0.10711566  0.90752070    -0.63800
N721        N  0.79918944  0.92691731  0.86463973    -0.05700
N722        N  0.81003420  0.87870783  0.86123634    -0.64500
Mn723      Mn  0.74659870  0.99475756  0.89207875     1.10700
C724        C  0.79369421  0.84834136  0.89252938     0.98500
C725        C  0.79952622  0.13279586  0.88308719     0.98500
N726        N  0.79623361  0.04654072  0.69982659    -0.06800
N727        N  0.81115106  0.07081382  0.66271790    -0.62100
N728        N  0.80784483  0.92625049  0.74588114    -0.06100
N729        N  0.83121061  0.89810776  0.74026399    -0.58900
N730        N  0.79296198  0.92782108  0.70205401    -0.07400
N731        N  0.80717601  0.90186144  0.66534155    -0.61700
N732        N  0.81129022  0.04614306  0.74344328    -0.06400
N733        N  0.83564857  0.07131440  0.73746259    -0.58900
Mn734      Mn  0.75894278  0.99060297  0.69192344     1.20200
Mn735      Mn  0.80534655  0.98774181  0.80528822     1.10100
Cl736      Cl  0.75286046  0.99302770  0.79215754    -0.86900
C737        C  0.83538716  0.08696542  0.68750368     0.95500
C738        C  0.83071528  0.88256543  0.69037115     0.95300
N739        N  0.54424677  0.20940579  0.43696065    -0.07000
N740        N  0.55882825  0.17235505  0.41159136    -0.59100
N741        N  0.55926699  0.25134480  0.55474036    -0.06700
N742        N  0.58413998  0.24457369  0.57746716    -0.61300
N743        N  0.54501095  0.20582187  0.55229771    -0.06300
N744        N  0.56125020  0.16701955  0.57199647    -0.59100
N745        N  0.55913624  0.25426710  0.43766008    -0.06000
N746        N  0.58297398  0.24908328  0.41153237    -0.61600
C747        C  0.58262858  0.19838500  0.39499184     0.95200
C748        C  0.58550308  0.19226462  0.58820018     0.94900
N749        N  0.52761450  0.40685701  0.56026189    -0.07200
N750        N  0.52491342  0.42908752  0.60651481    -0.59700
N751        N  0.54975014  0.37681125  0.43737078    -0.05300
N752        N  0.56230106  0.37665137  0.39143755    -0.61000
N753        N  0.52800471  0.40972068  0.43705378    -0.07200
N754        N  0.52533156  0.43222295  0.39055699    -0.60000
N755        N  0.54925274  0.37376264  0.56050677    -0.05000
N756        N  0.56165661  0.37301629  0.60691063    -0.61100
Mn757      Mn  0.55454699  0.31518415  0.49771117     1.18400
C758        C  0.54639375  0.40808620  0.63538272     0.97200
C759        C  0.54727997  0.41220765  0.36283833     0.97900
N760        N  0.97292040  0.19179198  0.55267065    -0.07300
N761        N  0.96419459  0.15140815  0.58257125    -0.63600
N762        N  0.95323671  0.23161090  0.43499873    -0.06100
N763        N  0.93117826  0.21811188  0.40638220    -0.64200
N764        N  0.97287980  0.19395557  0.43513737    -0.06800
N765        N  0.96349596  0.15293297  0.40702076    -0.63800
N766        N  0.95305811  0.22902444  0.55185773    -0.05700
N767        N  0.93157856  0.21620366  0.58170795    -0.64500
Mn768      Mn  0.00874204  0.19796221  0.49436188     1.10700
C769        C  0.93855321  0.16840062  0.60108361     0.98500
C770        C  0.93768265  0.16966326  0.38859802     0.98500
N771        N  0.96330430  0.39442599  0.43443061    -0.06800
N772        N  0.96404103  0.41604392  0.38722277    -0.62100
N773        N  0.94541570  0.34921981  0.55690891    -0.06100
N774        N  0.93343921  0.33915492  0.60240195    -0.58900
N775        N  0.96295181  0.38994410  0.56015408    -0.07400
N776        N  0.96356895  0.40764321  0.60871112    -0.61700
N777        N  0.94628913  0.35284633  0.43425673    -0.06400
N778        N  0.93508739  0.34564432  0.38757230    -0.58900
Mn779      Mn  0.99520282  0.40301633  0.49805511     1.20200
Mn780      Mn  0.94920157  0.29158281  0.49434691     1.10100
Cl781      Cl  0.00212643  0.30078654  0.49613030    -0.86900
C782        C  0.94608005  0.38541582  0.35835304     0.95500
C783        C  0.94464043  0.37619429  0.63437003     0.95300
N784        N  0.52942627  0.57632875  0.43466187    -0.07000
N785        N  0.52666893  0.55787771  0.38664252    -0.59100
N786        N  0.55015852  0.60951878  0.55843957    -0.06700
N787        N  0.56203494  0.61394040  0.60488763    -0.61300
N788        N  0.52844506  0.57637158  0.55974605    -0.06300
N789        N  0.52492324  0.55860083  0.60795563    -0.59100
N790        N  0.55071349  0.61037927  0.43662984    -0.06000
N791        N  0.56289447  0.61513590  0.39070099    -0.61600
C792        C  0.54793669  0.58198285  0.35969926     0.95200
C793        C  0.54634393  0.58173620  0.63552998     0.94900
N794        N  0.54249253  0.77535862  0.55586409    -0.07200
N795        N  0.55758552  0.81441236  0.57770572    -0.59700
N796        N  0.55831437  0.73252083  0.43994068    -0.05300
N797        N  0.58278045  0.74019999  0.41650503    -0.61000
N798        N  0.54311662  0.77684525  0.44058979    -0.07200
N799        N  0.55818977  0.81598152  0.41870866    -0.60000
N800        N  0.55782180  0.73117509  0.55667306    -0.05000
N801        N  0.58237827  0.73889072  0.58029958    -0.61100
Mn802      Mn  0.55432326  0.66956379  0.49782275     1.18400
C803        C  0.58229038  0.79056658  0.59342594     0.97200
C804        C  0.58270136  0.79187782  0.40295769     0.97900
N805        N  0.96321435  0.58385328  0.55667240    -0.07300
N806        N  0.96245674  0.56087496  0.60322080    -0.63600
N807        N  0.94723054  0.62587913  0.43202574    -0.06100
N808        N  0.93550327  0.63237910  0.38554331    -0.64200
N809        N  0.96424048  0.58438397  0.43241343    -0.06800
N810        N  0.96419946  0.56157106  0.38589079    -0.63800
N811        N  0.94600047  0.62498656  0.55550351    -0.05700
N812        N  0.93339334  0.63107509  0.60098148    -0.64500
Mn813      Mn  0.99633748  0.57716983  0.49593624     1.10700
C814        C  0.94351121  0.59051248  0.63041068     0.98500
C815        C  0.94585336  0.59160547  0.35720540     0.98500
N816        N  0.97116982  0.78691323  0.43759166    -0.06800
N817        N  0.96116912  0.82889295  0.41141433    -0.62100
N818        N  0.95107954  0.74622946  0.55329797    -0.06100
N819        N  0.92885325  0.75745249  0.58189077    -0.58900
N820        N  0.97024427  0.78488910  0.55486544    -0.07400
N821        N  0.96026986  0.82448322  0.58396540    -0.61700
N822        N  0.95190550  0.74836941  0.43644269    -0.06400
N823        N  0.92944462  0.76254409  0.40911413    -0.58900
Mn824      Mn  0.00668323  0.78314957  0.49731230     1.20200
Mn825      Mn  0.94878784  0.68548025  0.49412326     1.10100
Cl826      Cl  0.00161312  0.68001919  0.49622433    -0.86900
C827        C  0.93534158  0.81218270  0.39309895     0.95500
C828        C  0.93466520  0.80566916  0.60125943     0.95300
C829        C  0.85708672  0.86210534  0.66582808    -0.06400
C830        C  0.86652527  0.88252852  0.61784323    -0.33800
C831        C  0.89368184  0.86930180  0.59867268     0.35400
C832        C  0.91182211  0.83524403  0.62750806    -0.06700
C833        C  0.90229089  0.81489882  0.67521273    -0.33700
C834        C  0.87547715  0.82849238  0.69469945     0.35400
H835        H  0.85302440  0.90928620  0.59552154     0.15700
O836        O  0.90149305  0.88685445  0.55014680    -0.61200
H837        H  0.91521712  0.78622350  0.69644323     0.15700
O838        O  0.86688188  0.80671370  0.74115547    -0.61300
H839        H  0.87704936  0.82740126  0.76843698     0.42700
H840        H  0.91289767  0.91960025  0.55639386     0.42700
C841        C  0.66311298  0.86209896  0.63516119    -0.06400
C842        C  0.64154725  0.89364909  0.61245454    -0.33800
C843        C  0.61490269  0.87162014  0.59910924     0.35400
C844        C  0.60929128  0.81735201  0.60937584    -0.06700
C845        C  0.63134693  0.78567768  0.63058589    -0.33700
C846        C  0.65785316  0.80772782  0.64386123     0.35400
H847        H  0.64488418  0.93618641  0.60756863     0.15700
O848        O  0.59450529  0.90367835  0.57689570    -0.61200
H849        H  0.62784549  0.74360293  0.63812939     0.15700
O850        O  0.67804449  0.77636661  0.66775217    -0.61300
H851        H  0.67318958  0.77677913  0.70529741     0.42700
H852        H  0.59766470  0.90108253  0.53883266     0.42700
C853        C  0.86167030  0.10751675  0.66326761    -0.06400
C854        C  0.87568866  0.07834134  0.62443345    -0.33800
C855        C  0.90314623  0.09343229  0.60770362     0.35400
C856        C  0.91675106  0.13815925  0.62988695    -0.06700
C857        C  0.90297036  0.16578619  0.66990094    -0.33700
C858        C  0.87581380  0.15088989  0.68648506     0.35400
H859        H  0.86552013  0.04355058  0.60758439     0.15700
O860        O  0.91559102  0.06662617  0.56738144    -0.61200
H861        H  0.91263651  0.20139746  0.68619409     0.15700
O862        O  0.86298263  0.17975740  0.72500405    -0.61300
H863        H  0.85030678  0.20536810  0.70660145     0.42700
H864        H  0.92499768  0.03535004  0.58374833     0.42700
C865        C  0.66855606  0.12777903  0.62747004    -0.06400
C866        C  0.64732500  0.09395384  0.60682797    -0.33800
C867        C  0.61996664  0.11347191  0.59418449     0.35400
C868        C  0.61338092  0.16756366  0.60277740    -0.06700
C869        C  0.63515460  0.20142404  0.62161985    -0.33700
C870        C  0.66227152  0.18192318  0.63423571     0.35400
H871        H  0.65138445  0.05152998  0.60372812     0.15700
O872        O  0.59974311  0.07904600  0.57510387    -0.61200
H873        H  0.63099516  0.24337594  0.62805953     0.15700
O874        O  0.68214589  0.21562824  0.65581123    -0.61300
H875        H  0.67674099  0.21889200  0.69296633     0.42700
H876        H  0.60357015  0.07675447  0.53718633     0.42700
C877        C  0.85841554  0.87771114  0.33154664    -0.06400
C878        C  0.88208754  0.86837322  0.29891259    -0.33800
C879        C  0.90857117  0.85272039  0.31915870     0.35400
C880        C  0.91205153  0.84587766  0.37291358    -0.06700
C881        C  0.88886054  0.85654961  0.40592393    -0.33700
C882        C  0.86225645  0.87254318  0.38573370     0.35400
H883        H  0.88005732  0.87211850  0.25702404     0.15700
O884        O  0.93024784  0.84016766  0.28574857    -0.61200
H885        H  0.89096543  0.84950655  0.44743221     0.15700
O886        O  0.84017656  0.88181411  0.41924286    -0.61300
H887        H  0.83029934  0.84703613  0.42291087     0.42700
H888        H  0.94107960  0.87376410  0.28101702     0.42700
C889        C  0.66314121  0.86381790  0.36048822    -0.06400
C890        C  0.65710858  0.81070371  0.34823191    -0.33800
C891        C  0.63069558  0.78798929  0.36042122     0.35400
C892        C  0.60950154  0.81832210  0.38577867    -0.06700
C893        C  0.61575898  0.87134991  0.39919831    -0.33700
C894        C  0.64229622  0.89415405  0.38643173     0.35400
H895        H  0.67225015  0.78769145  0.32587855     0.15700
O896        O  0.62550564  0.73630280  0.34570223    -0.61200
H897        H  0.60007898  0.89519873  0.41930394     0.15700
O898        O  0.64685042  0.94731173  0.39579526    -0.61300
H899        H  0.65639691  0.94861588  0.43029896     0.42700
H900        H  0.61747683  0.73889375  0.30996207     0.42700
C901        C  0.86055783  0.11165991  0.32292274    -0.06400
C902        C  0.86645555  0.10293813  0.37590804    -0.33800
C903        C  0.89340057  0.11555190  0.39687225     0.35400
C904        C  0.91499023  0.13712669  0.36487332    -0.06700
C905        C  0.90930215  0.14478780  0.31194301    -0.33700
C906        C  0.88253121  0.13228080  0.29085486     0.35400
H907        H  0.85021237  0.08636169  0.40111829     0.15700
O908        O  0.89781937  0.11020255  0.44947061    -0.61200
H909        H  0.92510978  0.16378820  0.28736473     0.15700
O910        O  0.87793149  0.14148096  0.23877084    -0.61300
H911        H  0.87501814  0.18057665  0.23556239     0.42700
H912        H  0.90680023  0.07469718  0.45394683     0.42700
C913        C  0.66449168  0.13880889  0.34845733    -0.06400
C914        C  0.65246356  0.18385868  0.32433005    -0.33800
C915        C  0.62515402  0.20150070  0.33739881     0.35400
C916        C  0.60899119  0.17381628  0.37489185    -0.06700
C917        C  0.62092713  0.12881594  0.39943893    -0.33700
C918        C  0.64853108  0.11135710  0.38649947     0.35400
H919        H  0.66377975  0.20391473  0.29313454     0.15700
O920        O  0.61422190  0.24570997  0.31275928    -0.61200
H921        H  0.60908173  0.10775881  0.42927981     0.15700
O922        O  0.65890485  0.06531647  0.40842125    -0.61300
H923        H  0.66606097  0.07584601  0.44332584     0.42700
H924        H  0.60437950  0.23188998  0.28134667     0.42700
C925        C  0.81010327  0.68332607  0.08625200    -0.06400
C926        C  0.82097081  0.71976823  0.04928807    -0.33800
C927        C  0.81445796  0.77386922  0.05131921     0.35400
C928        C  0.79648926  0.79270919  0.09026496    -0.06700
C929        C  0.78448417  0.75657380  0.12619840    -0.33700
C930        C  0.79116475  0.70182801  0.12426559     0.35400
H931        H  0.83565344  0.70643938  0.01959654     0.15700
O932        O  0.82661041  0.80839477  0.01618167    -0.61200
H933        H  0.77086318  0.77118269  0.15693334     0.15700
O934        O  0.78101118  0.66791914  0.16187167    -0.61300
H935        H  0.76203788  0.65622783  0.14891483     0.42700
H936        H  0.84546005  0.81775613  0.03126497     0.42700
C937        C  0.80382375  0.30357664  0.10900496    -0.06400
C938        C  0.81477380  0.27138391  0.14892340    -0.33800
C939        C  0.81055321  0.21624612  0.14868000     0.35400
C940        C  0.79495475  0.19186466  0.10784396    -0.06700
C941        C  0.78114080  0.22479004  0.07117084    -0.33700
C942        C  0.78571759  0.28031158  0.07129377     0.35400
H943        H  0.82910439  0.28839621  0.17771607     0.15700
O944        O  0.82345269  0.18644170  0.18694451    -0.61200
H945        H  0.76842477  0.20725667  0.04028459     0.15700
O946        O  0.77508762  0.31044496  0.03104352    -0.61300
H947        H  0.79114244  0.31416935  0.00636365     0.42700
H948        H  0.80952340  0.18519886  0.21594460     0.42700
C949        C  0.79457413  0.78884182  0.89090199    -0.06400
C950        C  0.78403903  0.75739164  0.93196747    -0.33800
C951        C  0.78840442  0.70149922  0.93273882     0.35400
C952        C  0.80370317  0.67707399  0.89219427    -0.06700
C953        C  0.81178845  0.70780622  0.84921095    -0.33700
C954        C  0.80702978  0.76275609  0.84789827     0.35400
H955        H  0.77386813  0.77641626  0.96477267     0.15700
O956        O  0.78094672  0.67167716  0.97569204    -0.61200
H957        H  0.82386346  0.68971489  0.81805892     0.15700
O958        O  0.81598376  0.79082191  0.80504519    -0.61300
H959        H  0.79878420  0.79474684  0.78273122     0.42700
H960        H  0.76274761  0.68623627  0.98894045     0.42700
C961        C  0.81031833  0.30384004  0.86971628    -0.06400
C962        C  0.82842809  0.26864103  0.84335282    -0.33800
C963        C  0.82543400  0.21351411  0.84861518     0.35400
C964        C  0.80251157  0.19179422  0.87719511    -0.06700
C965        C  0.78220398  0.22706376  0.89782586    -0.33700
C966        C  0.78585563  0.28281450  0.89377293     0.35400
H967        H  0.84746514  0.28378922  0.82456612     0.15700
O968        O  0.84635569  0.18153509  0.82867108    -0.61200
H969        H  0.76421110  0.21136045  0.91899032     0.15700
O970        O  0.76693487  0.31602333  0.91771677    -0.61300
H971        H  0.75590383  0.33291662  0.88895196     0.42700
H972        H  0.86087689  0.17844637  0.85670524     0.42700
C973        C  0.93932917  0.58660282  0.68777003    -0.06400
C974        C  0.93276836  0.63237723  0.71688478    -0.33800
C975        C  0.93124832  0.63020258  0.77153656     0.35400
C976        C  0.93645544  0.58179673  0.79809397    -0.06700
C977        C  0.94194902  0.53575599  0.76878215    -0.33700
C978        C  0.94311978  0.53794471  0.71430121     0.35400
H979        H  0.92956383  0.67034262  0.69739977     0.15700
O980        O  0.92528347  0.67586912  0.79857154    -0.61200
H981        H  0.94531116  0.49780650  0.78819024     0.15700
O982        O  0.94762213  0.49199035  0.68718158    -0.61300
H983        H  0.92904387  0.48388311  0.67023236     0.42700
H984        H  0.94411416  0.69229976  0.80614812     0.42700
C985        C  0.93988376  0.58442769  0.18943675    -0.06400
C986        C  0.94964644  0.63095388  0.21403659    -0.33800
C987        C  0.95140163  0.63366791  0.26865961     0.35400
C988        C  0.94344048  0.58938743  0.29957415    -0.06700
C989        C  0.93270684  0.54367804  0.27498827    -0.33700
C990        C  0.93025897  0.54161240  0.22042276     0.35400
H991        H  0.95662194  0.66469424  0.19082493     0.15700
O992        O  0.96213668  0.67893409  0.29142558    -0.61200
H993        H  0.92554767  0.51008471  0.29820125     0.15700
O994        O  0.91763931  0.49816970  0.19762501    -0.61300
H995        H  0.89723752  0.50782018  0.19356763     0.42700
H996        H  0.94555413  0.70307225  0.29521188     0.42700
C997        C  0.94206655  0.37335001  0.69188349    -0.06400
C998        C  0.91573506  0.38227522  0.71588481    -0.33800
C999        C  0.91366842  0.38382824  0.77047091     0.35400
C1000       C  0.93829278  0.37747182  0.80185779    -0.06700
C1001       C  0.96421804  0.36521814  0.77777624    -0.33700
C1002       C  0.96592509  0.36133514  0.72328706     0.35400
H1003       H  0.89692533  0.38966457  0.69226838     0.15700
O1004       O  0.88779146  0.39466951  0.79264295    -0.61200
H1005       H  0.98304341  0.35782665  0.80132880     0.15700
O1006       O  0.99091126  0.34502219  0.70098790    -0.61300
H1007       H  0.98825069  0.30650756  0.69391063     0.42700
H1008       H  0.87786729  0.35982535  0.79466172     0.42700
C1009       C  0.94371894  0.38554997  0.18946033    -0.06400
C1010       C  0.92583241  0.35134728  0.21795594    -0.33800
C1011       C  0.92611588  0.35126504  0.27262855     0.35400
C1012       C  0.94431713  0.38636049  0.30031477    -0.06700
C1013       C  0.96243940  0.42002625  0.27179368    -0.33700
C1014       C  0.96246178  0.41946753  0.21722863     0.35400
H1015       H  0.91111381  0.32505180  0.19786893     0.15700
O1016       O  0.90793499  0.31746088  0.29843290    -0.61200
H1017       H  0.97676677  0.44712093  0.29183075     0.15700
O1018       O  0.97946563  0.45539410  0.19174315    -0.61300
H1019       H  0.99334515  0.43393953  0.17248715     0.42700
H1020       H  0.91775724  0.28248165  0.29919452     0.42700
C1021       C  0.67912364  0.68571409  0.87207215    -0.06400
C1022       C  0.66238773  0.71958213  0.84067330    -0.33800
C1023       C  0.66752639  0.77463642  0.83841678     0.35400
C1024       C  0.68986761  0.79749499  0.86808247    -0.06700
C1025       C  0.70832031  0.76287682  0.89545745    -0.33700
C1026       C  0.70338804  0.70730453  0.89662086     0.35400
H1027       H  0.64356301  0.70391870  0.82130381     0.15700
O1028       O  0.64953901  0.80587225  0.80906916    -0.61200
H1029       H  0.72612820  0.77910070  0.91716011     0.15700
O1030       O  0.72096091  0.67517441  0.92555752    -0.61300
H1031       H  0.73306299  0.65669622  0.89979202     0.42700
H1032       H  0.63324175  0.81393325  0.83214323     0.42700
C1033       C  0.68282612  0.31127358  0.88732264    -0.06400
C1034       C  0.67245086  0.28222486  0.84477438    -0.33800
C1035       C  0.67794110  0.22752014  0.83964528     0.35400
C1036       C  0.69393632  0.19971132  0.87805814    -0.06700
C1037       C  0.70546039  0.22945273  0.91965777    -0.33700
C1038       C  0.70040308  0.28477396  0.92409309     0.35400
H1039       H  0.65836710  0.30142173  0.81682846     0.15700
O1040       O  0.66664678  0.20146483  0.79742952    -0.61200
H1041       H  0.71774161  0.20952871  0.94977181     0.15700
O1042       O  0.71232970  0.31192994  0.96521134    -0.61300
H1043       H  0.69637211  0.32696063  0.98535515     0.42700
H1044       H  0.64659651  0.19342521  0.80691183     0.42700
C1045       C  0.68309531  0.68078261  0.12151859    -0.06400
C1046       C  0.66981402  0.71156389  0.15981075    -0.33800
C1047       C  0.67427272  0.76669786  0.16257955     0.35400
C1048       C  0.69248346  0.79234581  0.12657140    -0.06700
C1049       C  0.70816917  0.76057051  0.09191956    -0.33700
C1050       C  0.70359286  0.70517593  0.08930604     0.35400
H1051       H  0.65372965  0.69359489  0.18453680     0.15700
O1052       O  0.65961691  0.79521169  0.19920005    -0.61200
H1053       H  0.72300847  0.77890969  0.06500608     0.15700
O1054       O  0.71718232  0.67624922  0.05174539    -0.61300
H1055       H  0.70412188  0.67705841  0.02119268     0.42700
H1056       H  0.64054483  0.80176147  0.18361729     0.42700
C1057       C  0.69238432  0.19147387  0.10007239    -0.06400
C1058       C  0.67516253  0.20926892  0.05928036    -0.33800
C1059       C  0.66832931  0.26324394  0.05450931     0.35400
C1060       C  0.67964500  0.30129526  0.08988870    -0.06700
C1061       C  0.69860425  0.28382453  0.12881683    -0.33700
C1062       C  0.70484228  0.22901891  0.13425189     0.35400
H1063       H  0.66572465  0.18086256  0.03249585     0.15700
O1064       O  0.64992561  0.27850699  0.01541865    -0.61200
H1065       H  0.70728849  0.31201367  0.15657434     0.15700
O1066       O  0.72301979  0.21245953  0.17307471    -0.61300
H1067       H  0.71055537  0.20338556  0.20297927     0.42700
H1068       H  0.63079214  0.26615606  0.02658386     0.42700
C1069       C  0.54992232  0.59395608  0.80293652    -0.06400
C1070       C  0.57499535  0.59777436  0.77347704    -0.33800
C1071       C  0.57413629  0.59287899  0.71903953     0.35400
C1072       C  0.54793521  0.58409924  0.69318008    -0.06700
C1073       C  0.52281967  0.58262167  0.72263874    -0.33700
C1074       C  0.52381425  0.58626603  0.77700795     0.35400
H1075       H  0.59541669  0.60307184  0.79274258     0.15700
O1076       O  0.59912605  0.59527786  0.69159982    -0.61200
H1077       H  0.50229839  0.57900993  0.70346635     0.15700
O1078       O  0.49902109  0.58362111  0.80462123    -0.61300
H1079       H  0.99660526  0.54529173  0.81317776     0.42700
H1080       H  0.60321479  0.63385537  0.68724712     0.42700
C1081       C  0.54939004  0.58466660  0.30198130    -0.06400
C1082       C  0.52642559  0.56574585  0.27208436    -0.33800
C1083       C  0.52603291  0.57220267  0.21799526     0.35400
C1084       C  0.54894458  0.59733346  0.19219761    -0.06700
C1085       C  0.57179559  0.61691120  0.22204815    -0.33700
C1086       C  0.57225175  0.61044997  0.27633068     0.35400
H1087       H  0.50842139  0.54648346  0.29067284     0.15700
O1088       O  0.50315573  0.55294807  0.19067388    -0.61200
H1089       H  0.58984286  0.63577721  0.20323169     0.15700
O1090       O  0.59527128  0.62938605  0.30379195    -0.61300
H1091       H  0.60913496  0.59956578  0.30446832     0.42700
H1092       H  0.49567287  0.58392726  0.17079453     0.42700
C1093       C  0.55099002  0.40998260  0.80392794    -0.06400
C1094       C  0.52855349  0.43565196  0.77764758    -0.33800
C1095       C  0.52734190  0.43737745  0.72316799     0.35400
C1096       C  0.54886717  0.41298393  0.69318860    -0.06700
C1097       C  0.57179512  0.38866320  0.71950653    -0.33700
C1098       C  0.57306316  0.38719686  0.77415356     0.35400
H1099       H  0.51130940  0.45332594  0.79946025     0.15700
O1100       O  0.50344545  0.45839893  0.70020582    -0.61200
H1101       H  0.58869143  0.36984666  0.69767171     0.15700
O1102       O  0.59596180  0.36304100  0.79780801    -0.61300
H1103       H  0.61069016  0.39132026  0.80078052     0.42700
H1104       H  0.00997771  0.49019808  0.68076143     0.42700
C1105       C  0.54808828  0.41270596  0.30541337    -0.06400
C1106       C  0.56718303  0.44598105  0.27879770    -0.33800
C1107       C  0.56865851  0.44479749  0.22420685     0.35400
C1108       C  0.55079345  0.41006126  0.19561758    -0.06700
C1109       C  0.53236396  0.37568475  0.22244058    -0.33700
C1110       C  0.53096022  0.37680696  0.27697711     0.35400
H1111       H  0.58107342  0.47261062  0.30037925     0.15700
O1112       O  0.58848488  0.47608408  0.19943133    -0.61200
H1113       H  0.51878018  0.34836962  0.20102513     0.15700
O1114       O  0.51261645  0.34291619  0.30230664    -0.61300
H1115       H  0.02266803  0.30813365  0.30407920     0.42700
H1116       H  0.57740060  0.50309956  0.17961155     0.42700
loop_ 
_geom_bond_atom_site_label_1 
_geom_bond_atom_site_label_2 
_geom_bond_distance 
_geom_bond_site_symmetry_2 
_ccdc_geom_bond_type 
N1            N2   1.334       .  A
N1            N7   1.320       .  A
N1          Mn30   2.267   1_554  S
N2            C9   1.366       .  A
N3            N5   1.321       .  A
N3            N4   1.314       .  A
N3          Mn19   2.197   1_556  S
N4           C10   1.342       .  A
N5            N6   1.332       .  A
N5          Mn30   2.243       .  S
N6           C10   1.363       .  A
N7            N8   1.310       .  A
N7          Mn19   2.175       .  S
N8            C9   1.337       .  A
C9          C502   1.487       .  S
C10         C475   1.484       .  S
N11          N17   1.313       .  A
N11          N12   1.322       .  A
N11         Mn41   2.198       .  S
N12          C20   1.352       .  A
N13          N14   1.323       .  A
N13          N15   1.312       .  A
N13         Mn19   2.194       .  S
N14          C21   1.349       .  A
N15          N16   1.323       .  A
N15         Mn41   2.201   1_554  S
N16          C21   1.352       .  A
N17          N18   1.322       .  A
N17         Mn19   2.195   1_556  S
N18          C20   1.352       .  A
Mn19        Cl43   2.454   1_554  S
C20         C535   1.490       .  S
C21         C550   1.479       .  S
N22          N23   1.335       .  A
N22          N28   1.320       .  A
N22         Mn30   2.275       .  S
N23          C31   1.369       .  A
N24          N26   1.321       .  A
N24          N25   1.311       .  A
N24         Mn42   2.179   1_554  S
N25          C32   1.341       .  A
N26          N27   1.330       .  A
N26         Mn30   2.250   1_554  S
N27          C32   1.362       .  A
N28          N29   1.309       .  A
N28         Mn42   2.163       .  S
N29          C31   1.338       .  A
Mn30        Cl43   2.614       .  S
C31         C463   1.486       .  S
C32         C487   1.475       .  S
N33          N34   1.317       .  A
N33          N39   1.310       .  A
N33         Mn41   2.186   1_554  S
N34          C44   1.351       .  A
N35          N36   1.323       .  A
N35          N37   1.312       .  A
N35         Mn42   2.196       .  S
N36          C45   1.351       .  A
N37          N38   1.321       .  A
N37         Mn41   2.192       .  S
N38          C45   1.351       .  A
N39          N40   1.323       .  A
N39         Mn42   2.192   1_554  S
N40          C44   1.353       .  A
Mn41        Cl43   2.608       .  S
Mn42        Cl43   2.460       .  S
C44         C526   1.486       .  S
C45         C511   1.481       .  S
N46          N47   1.320       .  A
N46          N52   1.311       .  A
N46         Mn75   2.201   1_554  S
N47          C54   1.354       .  A
N48          N50   1.312       .  A
N48          N49   1.322       .  A
N48         Mn64   2.193       .  S
N49          C55   1.350       .  A
N50          N51   1.327       .  A
N50         Mn75   2.220       .  S
N51          C55   1.357       .  A
N52          N53   1.323       .  A
N52         Mn64   2.193   1_554  S
N53          C54   1.354       .  A
C54         C451   1.493       .  S
C55         C442   1.487       .  S
N56          N62   1.318       .  A
N56          N57   1.334       .  A
N56         Mn86   2.260       .  S
N57          C65   1.368       .  A
N58          N59   1.312       .  A
N58          N60   1.320       .  A
N58         Mn64   2.182   1_554  S
N59          C66   1.342       .  A
N60          N61   1.329       .  A
N60         Mn86   2.234   1_554  S
N61          C66   1.359       .  A
N62          N63   1.305       .  A
N62         Mn64   2.156       .  S
N63          C65   1.337       .  A
Mn64        Cl88   2.465       .  S
C65         C403   1.480       .  S
C66         C379   1.473       .  S
N67          N68   1.323       .  A
N67          N73   1.314       .  A
N67         Mn75   2.211       .  S
N68          C76   1.354       .  A
N69          N71   1.312       .  A
N69          N70   1.323       .  A
N69         Mn87   2.185   1_554  S
N70          C77   1.347       .  A
N71          N72   1.326       .  A
N71         Mn75   2.225   1_554  S
N72          C77   1.357       .  A
N73          N74   1.323       .  A
N73         Mn87   2.191       .  S
N74          C76   1.351       .  A
Mn75        Cl88   2.579       .  S
C76         C418   1.487       .  S
C77         C427   1.486       .  S
N78          N79   1.332       .  A
N78          N84   1.321       .  A
N78         Mn86   2.253   1_554  S
N79          C89   1.363       .  A
N80          N81   1.313       .  A
N80          N82   1.321       .  A
N80         Mn87   2.187       .  S
N81          C90   1.341       .  A
N82          N83   1.330       .  A
N82         Mn86   2.227       .  S
N83          C90   1.359       .  A
N84          N85   1.309       .  A
N84         Mn87   2.178   1_554  S
N85          C89   1.339       .  A
Mn86        Cl88   2.618       .  S
Mn87        Cl88   2.467       .  S
C89         C367   1.479       .  S
C90         C394   1.475       .  S
N91          N92   1.333       .  A
N91          N97   1.320       .  A
N91        Mn120   2.273   1_545  S
N92          C99   1.366       .  A
N93          N95   1.320       .  A
N93          N94   1.311       .  A
N93        Mn109   2.169       .  S
N94         C100   1.337       .  A
N95          N96   1.331       .  A
N95        Mn120   2.255       .  S
N96         C100   1.363       .  A
N97          N98   1.309       .  A
N97        Mn109   2.152   1_545  S
N98          C99   1.335       .  A
C99         C355   1.474       .  S
C100        C331   1.470       .  S
N101        N107   1.313       .  A
N101        N102   1.325       .  A
N101       Mn131   2.204       .  S
N102        C110   1.354       .  A
N103        N104   1.322       .  A
N103        N105   1.310       .  A
N103       Mn109   2.188   1_545  S
N104        C111   1.350       .  A
N105        N106   1.323       .  A
N105       Mn131   2.193   1_545  S
N106        C111   1.350       .  A
N107        N108   1.319       .  A
N107       Mn109   2.188       .  S
N108        C110   1.349       .  A
Mn109      Cl133   2.468       .  S
C110        C490   1.490       .  S
C111        C499   1.474       .  S
N112        N113   1.333       .  A
N112        N118   1.322       .  A
N112       Mn120   2.265       .  S
N113        C121   1.365       .  A
N114        N116   1.320       .  A
N114        N115   1.311       .  A
N114       Mn132   2.171   1_545  S
N115        C122   1.339       .  A
N116        N117   1.332       .  A
N116       Mn120   2.254   1_545  S
N117        C122   1.365       .  A
N118        N119   1.311       .  A
N118       Mn132   2.170       .  S
N119        C121   1.340       .  A
Mn120      Cl133   2.602       .  S
C121        C319   1.494       .  S
C122        C343   1.488       .  S
N123        N124   1.327       .  A
N123        N129   1.314       .  A
N123       Mn131   2.207   1_545  S
N124        C134   1.355       .  A
N125        N126   1.319       .  A
N125        N127   1.311       .  A
N125       Mn132   2.179       .  S
N126        C135   1.348       .  A
N127        N128   1.323       .  A
N127       Mn131   2.194       .  S
N128        C135   1.350       .  A
N129        N130   1.316       .  A
N129       Mn132   2.181   1_545  S
N130        C134   1.346       .  A
Mn131      Cl133   2.603       .  S
Mn132      Cl133   2.466       .  S
C134        C382   1.489       .  S
C135        C370   1.467       .  S
N136        N137   1.331       .  A
N136        N142   1.310       .  A
N136       Mn165   2.236   1_545  S
N137        C144   1.361       .  A
N138        N140   1.313       .  A
N138        N139   1.320       .  A
N138       Mn154   2.183       .  S
N139        C145   1.348       .  A
N140        N141   1.329       .  A
N140       Mn165   2.226       .  S
N141        C145   1.358       .  A
N142        N143   1.320       .  A
N142       Mn154   2.186   1_545  S
N143        C144   1.350       .  A
C144        C478   1.506       .  S
C145        C466   1.498       .  S
N146        N152   1.320       .  A
N146        N147   1.331       .  A
N146       Mn176   2.252       .  S
N147        C155   1.363       .  A
N148        N149   1.310       .  A
N148        N150   1.321       .  A
N148       Mn154   2.159   1_545  S
N149        C156   1.336       .  A
N150        N151   1.331       .  A
N150       Mn176   2.263   1_545  S
N151        C156   1.363       .  A
N152        N153   1.311       .  A
N152       Mn154   2.164       .  S
N153        C155   1.337       .  A
Mn154      Cl178   2.486       .  S
C155        C283   1.469       .  S
C156        C307   1.471       .  S
N157        N158   1.330       .  A
N157        N163   1.312       .  A
N157       Mn165   2.231       .  S
N158        C166   1.358       .  A
N159        N161   1.314       .  A
N159        N160   1.316       .  A
N159       Mn177   2.173   1_545  S
N160        C167   1.345       .  A
N161        N162   1.328       .  A
N161       Mn165   2.219   1_545  S
N162        C167   1.357       .  A
N163        N164   1.315       .  A
N163       Mn177   2.171       .  S
N164        C166   1.346       .  A
Mn165      Cl178   2.585       .  S
C166        C391   1.493       .  S
C167        C406   1.492       .  S
N168        N169   1.330       .  A
N168        N174   1.321       .  A
N168       Mn176   2.248   1_545  S
N169        C179   1.361       .  A
N170        N171   1.313       .  A
N170        N172   1.321       .  A
N170       Mn177   2.177       .  S
N171        C180   1.341       .  A
N172        N173   1.331       .  A
N172       Mn176   2.256       .  S
N173        C180   1.363       .  A
N174        N175   1.313       .  A
N174       Mn177   2.174   1_545  S
N175        C179   1.340       .  A
Mn176      Cl178   2.592       .  S
Mn177      Cl178   2.486       .  S
C179        C295   1.475       .  S
C180        C271   1.484       .  S
N181        N182   1.329       .  A
N181        N187   1.322       .  A
N181       Mn768   2.247       .  S
N182        C189   1.361       .  A
N183        N185   1.323       .  A
N183        N184   1.312       .  A
N183       Mn199   2.175       .  S
N184        C190   1.340       .  A
N185        N186   1.333       .  A
N185       Mn768   2.262       .  S
N186        C190   1.364       .  A
N187        N188   1.314       .  A
N187       Mn199   2.187       .  S
N188        C189   1.342       .  A
C189        C358   1.479       .  S
C190        C310   1.493       .  S
N191        N197   1.312       .  A
N191        N192   1.321       .  A
N191       Mn779   2.201   1_455  S
N192        C200   1.353       .  A
N193        N194   1.321       .  A
N193        N195   1.313       .  A
N193       Mn199   2.194       .  S
N194        C201   1.349       .  A
N195        N196   1.324       .  A
N195       Mn779   2.207   1_455  S
N196        C201   1.353       .  A
N197        N198   1.323       .  A
N197       Mn199   2.201       .  S
N198        C200   1.354       .  A
Mn199      Cl781   2.484       .  S
C200        C538   1.494       .  S
C201        C547   1.475       .  S
N202        N203   1.333       .  A
N202        N208   1.320       .  A
N202       Mn210   2.261       .  S
N203        C211   1.365       .  A
N204        N206   1.320       .  A
N204        N205   1.310       .  A
N204       Mn222   2.155       .  S
N205        C212   1.336       .  A
N206        N207   1.332       .  A
N206       Mn210   2.263       .  S
N207        C212   1.363       .  A
N208        N209   1.308       .  A
N208       Mn222   2.156       .  S
N209        C211   1.336       .  A
Mn210       N739   2.247       .  S
Mn210       N743   2.262       .  S
Mn210      Cl223   2.597       .  S
C211        C298   1.472       .  S
C212        C346   1.470       .  S
N213        N214   1.326       .  A
N213        N219   1.311       .  A
N213       Mn221   2.220       .  S
N214        C224   1.358       .  A
N215        N216   1.322       .  A
N215        N217   1.312       .  A
N215       Mn222   2.173       .  S
N216        C225   1.346       .  A
N217        N218   1.325       .  A
N217       Mn221   2.226       .  S
N218        C225   1.357       .  A
N219        N220   1.319       .  A
N219       Mn222   2.176       .  S
N220        C224   1.348       .  A
Mn221       N749   2.201       .  S
Mn221       N753   2.207       .  S
Mn221      Cl223   2.584       .  S
Mn222      Cl223   2.492       .  S
Cl223      Mn757   2.484       .  S
C224        C454   1.492       .  S
C225        C439   1.484       .  S
N226        N227   1.324       .  A
N226        N232   1.313       .  A
N226       Mn813   2.216   1_455  S
N227        C234   1.356       .  A
N228        N230   1.313       .  A
N228        N229   1.319       .  A
N228       Mn244   2.169       .  S
N229        C235   1.345       .  A
N230        N231   1.325       .  A
N230       Mn813   2.219   1_455  S
N231        C235   1.356       .  A
N232        N233   1.318       .  A
N232       Mn244   2.171       .  S
N233        C234   1.347       .  A
C234        C523   1.485       .  S
C235        C514   1.483       .  S
N236        N242   1.322       .  A
N236        N237   1.331       .  A
N236       Mn824   2.256       .  S
N237        C245   1.363       .  A
N238        N239   1.312       .  A
N238        N240   1.321       .  A
N238       Mn244   2.171       .  S
N239        C246   1.340       .  A
N240        N241   1.332       .  A
N240       Mn824   2.257       .  S
N241        C246   1.364       .  A
N242        N243   1.313       .  A
N242       Mn244   2.171       .  S
N243        C245   1.340       .  A
Mn244      Cl826   2.486       .  S
C245        C286   1.488       .  S
C246        C334   1.488       .  S
N247        N248   1.325       .  A
N247        N253   1.311       .  A
N247       Mn255   2.214       .  S
N248        C256   1.358       .  A
N249        N251   1.312       .  A
N249        N250   1.321       .  A
N249       Mn267   2.191       .  S
N250        C257   1.350       .  A
N251        N252   1.327       .  A
N251       Mn255   2.220       .  S
N252        C257   1.357       .  A
N253        N254   1.321       .  A
N253       Mn267   2.186       .  S
N254        C256   1.349       .  A
Mn255       N784   2.216       .  S
Mn255       N788   2.219       .  S
Mn255      Cl268   2.589       .  S
C256        C415   1.490       .  S
C257        C430   1.485       .  S
N258        N259   1.331       .  A
N258        N264   1.321       .  A
N258       Mn266   2.259       .  S
N259        C269   1.363       .  A
N260        N261   1.310       .  A
N260        N262   1.321       .  A
N260       Mn267   2.158       .  S
N261        C270   1.336       .  A
N262        N263   1.332       .  A
N262       Mn266   2.266       .  S
N263        C270   1.365       .  A
N264        N265   1.311       .  A
N264       Mn267   2.163       .  S
N265        C269   1.337       .  A
Mn266       N794   2.256       .  S
Mn266       N798   2.257       .  S
Mn266      Cl268   2.595       .  S
Mn267      Cl268   2.481       .  S
Cl268      Mn802   2.486       .  S
C269        C322   1.473       .  S
C270        C274   1.472       .  S
C271        C272   1.405       .  A
C271        C276   1.412       .  A
C272        C273   1.409       .  A
C272        H277   1.083       .  S
C273        C274   1.411       .  A
C273        O278   1.371       .  S
C274        C275   1.400       .  A
C275        C276   1.399       .  A
C275        H279   1.084       .  S
C276        O280   1.372       .  S
O278        H282   0.992       .  S
O280        H281   0.992       .  S
C283        C284   1.407       .  A
C283        C288   1.401       .  A
C284        C285   1.406       .  A
C284        H289   1.084       .  S
C285        C286   1.409       .  A
C285        O290   1.371       .  S
C286        C287   1.411       .  A
C287        C288   1.400       .  A
C287        H291   1.084       .  S
C288        O292   1.372       .  S
O290        H294   0.992       .  S
O292        H293   0.992       .  S
C295        C296   1.406       .  A
C295        C300   1.405       .  A
C296        C297   1.410       .  A
C296        H301   1.084       .  S
C297        C298   1.409       .  A
C297        O302   1.371       .  S
C298        C299   1.403       .  A
C299        C300   1.395       .  A
C299        H303   1.085       .  S
C300        O304   1.371       .  S
O302        H306   0.991       .  S
O304        H305   0.992       .  S
C307        C308   1.409       .  A
C307        C312   1.401       .  A
C308        C309   1.410       .  A
C308        H313   1.084       .  S
C309        C310   1.410       .  A
C309        O314   1.371       .  S
C310        C311   1.411       .  A
C311        C312   1.399       .  A
C311        H315   1.083       .  S
C312        O316   1.373       .  S
O314        H318   0.993       .  S
O316        H317   0.992       .  S
C319        C320   1.415       .  A
C319        C324   1.407       .  A
C320        C321   1.400       .  A
C320        H325   1.083       .  S
C321        C322   1.399       .  A
C321        O326   1.372       .  S
C322        C323   1.409       .  A
C323        C324   1.407       .  A
C323        H327   1.084       .  S
C324        O328   1.371       .  S
O326        H330   0.990       .  S
O328        H329   0.991       .  S
C331        C332   1.397       .  A
C331        C336   1.412       .  A
C332        C333   1.398       .  A
C332        H337   1.084       .  S
C333        C334   1.416       .  A
C333        O338   1.372       .  S
C334        C335   1.404       .  A
C335        C336   1.408       .  A
C335        H339   1.083       .  S
C336        O340   1.371       .  S
O338        H342   0.992       .  S
O340        H341   0.991       .  S
C343        C344   1.403       .  A
C343        C348   1.418       .  A
C344        C345   1.407       .  A
C344        H349   1.083       .  S
C345        C346   1.412       .  A
C345        O350   1.371       .  S
C346        C347   1.396       .  A
C347        C348   1.400       .  A
C347        H351   1.084       .  S
C348        O352   1.372       .  S
O350        H354   0.991       .  S
O352        H353   0.993       .  S
C355        C356   1.403       .  A
C355        C360   1.410       .  A
C356        C357   1.399       .  A
C356        H361   1.084       .  S
C357        C358   1.408       .  A
C357        O362   1.372       .  S
C358        C359   1.405       .  A
C359        C360   1.409       .  A
C359        H363   1.083       .  S
C360        O364   1.371       .  S
O362        H366   0.991       .  S
O364        H365   0.992       .  S
C367        C368   1.411       .  A
C367        C372   1.404       .  A
C368        C369   1.392       .  A
C368        H373   1.084       .  S
C369        C370   1.396       .  A
C369        O374   1.373       .  S
C370        C371   1.409       .  A
C371        C372   1.409       .  A
C371        H375   1.084       .  S
C372        O376   1.370       .  S
O374        H378   0.991       .  S
O376        H377   0.992       .  S
C379        C380   1.398       .  A
C379        C384   1.411       .  A
C380        C381   1.396       .  A
C380        H385   1.084       .  S
C381        C382   1.415       .  A
C381        O386   1.370       .  S
C382        C383   1.406       .  A
C383        C384   1.408       .  A
C383        H387   1.084       .  S
C384        O388   1.370       .  S
O386        H390   0.994       .  S
O388        H389   0.991       .  S
C391        C392   1.405       .  A
C391        C396   1.415       .  A
C392        C393   1.416       .  A
C392        H397   1.083       .  S
C393        C394   1.410       .  A
C393        O398   1.376       .  S
C394        C395   1.397       .  A
C395        C396   1.396       .  A
C395        H399   1.084       .  S
C396        O400   1.371       .  S
O398        H402   0.991       .  S
O400        H401   0.992       .  S
C403        C404   1.405       .  A
C403        C408   1.406       .  A
C404        C405   1.394       .  A
C404        H409   1.084       .  S
C405        C406   1.412       .  A
C405        O410   1.371       .  S
C406        C407   1.408       .  A
C407        C408   1.411       .  A
C407        H411   1.079       .  S
C408        O412   1.368       .  S
O410        H414   0.991       .  S
O412        H413   0.993       .  S
C415        C416   1.408       .  A
C415        C420   1.405       .  A
C416        C417   1.406       .  A
C416        H421   1.083       .  S
C417        C418   1.410       .  A
C417        O422   1.371       .  S
C418        C419   1.406       .  A
C419        C420   1.401       .  A
C419        H423   1.083       .  S
C420        O424   1.366       .  S
O422        H426   0.992       .  S
O424        H425   0.993       .  S
C427        C428   1.403       .  A
C427        C432   1.408       .  A
C428        C429   1.406       .  A
C428        H433   1.083       .  S
C429        C430   1.412       .  A
C429        O434   1.372       .  S
C430        C431   1.402       .  A
C431        C432   1.406       .  A
C431        H435   1.083       .  S
C432        O436   1.370       .  S
O434        H438   0.992       .  S
O436        H437   0.992       .  S
C439        C440   1.402       .  A
C439        C444   1.408       .  A
C440        C441   1.406       .  A
C440        H445   1.083       .  S
C441        C442   1.413       .  A
C441        O446   1.371       .  S
C442        C443   1.402       .  A
C443        C444   1.406       .  A
C443        H447   1.083       .  S
C444        O448   1.371       .  S
O446        H450   0.990       .  S
O448        H449   0.991       .  S
C451        C452   1.404       .  A
C451        C456   1.414       .  A
C452        C453   1.404       .  A
C452        H457   1.083       .  S
C453        C454   1.415       .  A
C453        O458   1.372       .  S
C454        C455   1.403       .  A
C455        C456   1.401       .  A
C455        H459   1.084       .  S
C456        O460   1.368       .  S
O458        H462   0.991       .  S
O460        H461   0.982       .  S
C463        C464   1.406       .  A
C463        C468   1.406       .  A
C464        C465   1.401       .  A
C464        H469   1.084       .  S
C465        C466   1.414       .  A
C465        O470   1.372       .  S
C466        C467   1.410       .  A
C467        C468   1.412       .  A
C467        H471   1.081       .  S
C468        O472   1.368       .  S
O470        H474   0.991       .  S
O472        H473   0.991       .  S
C475        C476   1.400       .  A
C475        C480   1.414       .  A
C476        C477   1.403       .  A
C476        H481   1.084       .  S
C477        C478   1.418       .  A
C477        O482   1.371       .  S
C478        C479   1.410       .  A
C479        C480   1.412       .  A
C479        H483   1.083       .  S
C480        O484   1.374       .  S
O482        H486   0.993       .  S
O484        H485   0.988       .  S
C487        C488   1.402       .  A
C487        C492   1.408       .  A
C488        C489   1.399       .  A
C488        H493   1.084       .  S
C489        C490   1.414       .  A
C489        O494   1.372       .  S
C490        C491   1.408       .  A
C491        C492   1.406       .  A
C491        H495   1.084       .  S
C492        O496   1.370       .  S
O494        H498   0.991       .  S
O496        H497   0.993       .  S
C499        C500   1.392       .  A
C499        C504   1.413       .  A
C500        C501   1.396       .  A
C500        H505   1.084       .  S
C501        C502   1.420       .  A
C501        O506   1.374       .  S
C502        C503   1.403       .  A
C503        C504   1.411       .  A
C503        H507   1.083       .  S
C504        O508   1.372       .  S
O506        H510   0.992       .  S
O508        H509   0.993       .  S
C511        C512   1.404       .  A
C511        C516   1.404       .  A
C512        C513   1.404       .  A
C512        H517   1.084       .  S
C513        C514   1.411       .  A
C513        O518   1.372       .  S
C514        C515   1.404       .  A
C515        C516   1.400       .  A
C515        H519   1.082       .  S
C516        O520   1.366   1_455  S
O518        H522   0.991       .  S
O520       H1079   0.991       .  S
H521       O1078   0.991       .  S
C523        C524   1.402       .  A
C523        C528   1.415       .  A
C524        C525   1.398       .  A
C524        H529   1.084       .  S
C525        C526   1.411       .  A
C525        O530   1.367       .  S
C526        C527   1.403       .  A
C527        C528   1.403       .  A
C527        H531   1.083       .  S
C528        O532   1.371       .  S
O530        H534   0.991   1_455  S
O532        H533   0.992       .  S
C535        C536   1.403       .  A
C535        C540   1.413       .  A
C536        C537   1.400       .  A
C536        H541   1.083       .  S
C537        C538   1.415       .  A
C537        O542   1.369       .  S
C538        C539   1.406       .  A
C539        C540   1.404       .  A
C539        H543   1.083       .  S
C540        O544   1.371       .  S
O542       H1104   0.987       .  S
O544        H545   0.991       .  S
H546       O1100   0.988       .  S
C547        C548   1.401       .  A
C547        C552   1.408       .  A
C548        C549   1.404       .  A
C548        H553   1.084       .  S
C549        C550   1.412       .  A
C549        O554   1.372       .  S
C550        C551   1.400       .  A
C551        C552   1.403       .  A
C551        H555   1.084       .  S
C552        O556   1.372       .  S
O554        H558   0.992       .  S
O556       H1115   0.993       .  S
H557       O1114   0.993       .  S
N559        N560   1.334       .  A
N559        N565   1.320       .  A
N559       Mn588   2.267   1_554  S
N560        C567   1.366       .  A
N561        N563   1.321       .  A
N561        N562   1.314       .  A
N561       Mn577   2.197   1_556  S
N562        C568   1.342       .  A
N563        N564   1.332       .  A
N563       Mn588   2.243       .  S
N564        C568   1.363       .  A
N565        N566   1.310       .  A
N565       Mn577   2.175       .  S
N566        C567   1.337       .  A
C567       C1060   1.487       .  S
C568       C1033   1.484       .  S
N569        N575   1.313       .  A
N569        N570   1.322       .  A
N569       Mn599   2.198       .  S
N570        C578   1.352       .  A
N571        N572   1.323       .  A
N571        N573   1.312       .  A
N571       Mn577   2.194       .  S
N572        C579   1.349       .  A
N573        N574   1.323       .  A
N573       Mn599   2.201   1_554  S
N574        C579   1.352       .  A
N575        N576   1.322       .  A
N575       Mn577   2.195   1_556  S
N576        C578   1.352       .  A
Mn577      Cl601   2.454   1_554  S
C578       C1093   1.490       .  S
C579       C1108   1.479       .  S
N580        N581   1.335       .  A
N580        N586   1.320       .  A
N580       Mn588   2.275       .  S
N581        C589   1.369       .  A
N582        N584   1.321       .  A
N582        N583   1.311       .  A
N582       Mn600   2.179   1_554  S
N583        C590   1.341       .  A
N584        N585   1.330       .  A
N584       Mn588   2.250   1_554  S
N585        C590   1.362       .  A
N586        N587   1.309       .  A
N586       Mn600   2.163       .  S
N587        C589   1.338       .  A
Mn588      Cl601   2.614       .  S
C589       C1021   1.486       .  S
C590       C1045   1.475       .  S
N591        N592   1.317       .  A
N591        N597   1.310       .  A
N591       Mn599   2.186   1_554  S
N592        C602   1.351       .  A
N593        N594   1.323       .  A
N593        N595   1.312       .  A
N593       Mn600   2.196       .  S
N594        C603   1.351       .  A
N595        N596   1.321       .  A
N595       Mn599   2.192       .  S
N596        C603   1.351       .  A
N597        N598   1.323       .  A
N597       Mn600   2.192   1_554  S
N598        C602   1.353       .  A
Mn599      Cl601   2.608       .  S
Mn600      Cl601   2.460       .  S
C602       C1084   1.486       .  S
C603       C1069   1.481       .  S
N604        N605   1.320       .  A
N604        N610   1.311       .  A
N604       Mn633   2.201   1_554  S
N605        C612   1.354       .  A
N606        N608   1.312       .  A
N606        N607   1.322       .  A
N606       Mn622   2.193       .  S
N607        C613   1.350       .  A
N608        N609   1.327       .  A
N608       Mn633   2.220       .  S
N609        C613   1.357       .  A
N610        N611   1.323       .  A
N610       Mn622   2.193   1_554  S
N611        C612   1.354       .  A
C612       C1009   1.493       .  S
C613       C1000   1.487       .  S
N614        N620   1.318       .  A
N614        N615   1.334       .  A
N614       Mn644   2.260       .  S
N615        C623   1.368       .  A
N616        N617   1.312       .  A
N616        N618   1.320       .  A
N616       Mn622   2.182   1_554  S
N617        C624   1.342       .  A
N618        N619   1.329       .  A
N618       Mn644   2.234   1_554  S
N619        C624   1.359       .  A
N620        N621   1.305       .  A
N620       Mn622   2.156       .  S
N621        C623   1.337       .  A
Mn622      Cl646   2.465       .  S
C623        C961   1.480       .  S
C624        C937   1.473       .  S
N625        N626   1.323       .  A
N625        N631   1.314       .  A
N625       Mn633   2.211       .  S
N626        C634   1.354       .  A
N627        N629   1.312       .  A
N627        N628   1.323       .  A
N627       Mn645   2.185   1_554  S
N628        C635   1.347       .  A
N629        N630   1.326       .  A
N629       Mn633   2.225   1_554  S
N630        C635   1.357       .  A
N631        N632   1.323       .  A
N631       Mn645   2.191       .  S
N632        C634   1.351       .  A
Mn633      Cl646   2.579       .  S
C634        C976   1.487       .  S
C635        C985   1.486       .  S
N636        N637   1.332       .  A
N636        N642   1.321       .  A
N636       Mn644   2.253   1_554  S
N637        C647   1.363       .  A
N638        N639   1.313       .  A
N638        N640   1.321       .  A
N638       Mn645   2.187       .  S
N639        C648   1.341       .  A
N640        N641   1.330       .  A
N640       Mn644   2.227       .  S
N641        C648   1.359       .  A
N642        N643   1.309       .  A
N642       Mn645   2.178   1_554  S
N643        C647   1.339       .  A
Mn644      Cl646   2.618       .  S
Mn645      Cl646   2.467       .  S
C647        C925   1.479       .  S
C648        C952   1.475       .  S
N649        N650   1.333       .  A
N649        N655   1.320       .  A
N649       Mn678   2.273   1_545  S
N650        C657   1.366       .  A
N651        N653   1.320       .  A
N651        N652   1.311       .  A
N651       Mn667   2.169       .  S
N652        C658   1.337       .  A
N653        N654   1.331       .  A
N653       Mn678   2.255       .  S
N654        C658   1.363       .  A
N655        N656   1.309       .  A
N655       Mn667   2.152   1_545  S
N656        C657   1.335       .  A
C657        C913   1.474       .  S
C658        C889   1.470       .  S
N659        N665   1.313       .  A
N659        N660   1.325       .  A
N659       Mn689   2.204       .  S
N660        C668   1.354       .  A
N661        N662   1.322       .  A
N661        N663   1.310       .  A
N661       Mn667   2.188   1_545  S
N662        C669   1.350       .  A
N663        N664   1.323       .  A
N663       Mn689   2.193   1_545  S
N664        C669   1.350       .  A
N665        N666   1.319       .  A
N665       Mn667   2.188       .  S
N666        C668   1.349       .  A
Mn667      Cl691   2.468       .  S
C668       C1048   1.490       .  S
C669       C1057   1.474       .  S
N670        N671   1.333       .  A
N670        N676   1.322       .  A
N670       Mn678   2.265       .  S
N671        C679   1.365       .  A
N672        N674   1.320       .  A
N672        N673   1.311       .  A
N672       Mn690   2.171   1_545  S
N673        C680   1.339       .  A
N674        N675   1.332       .  A
N674       Mn678   2.254   1_545  S
N675        C680   1.365       .  A
N676        N677   1.311       .  A
N676       Mn690   2.170       .  S
N677        C679   1.340       .  A
Mn678      Cl691   2.602       .  S
C679        C877   1.494       .  S
C680        C901   1.488       .  S
N681        N682   1.327       .  A
N681        N687   1.314       .  A
N681       Mn689   2.207   1_545  S
N682        C692   1.355       .  A
N683        N684   1.319       .  A
N683        N685   1.311       .  A
N683       Mn690   2.179       .  S
N684        C693   1.348       .  A
N685        N686   1.323       .  A
N685       Mn689   2.194       .  S
N686        C693   1.350       .  A
N687        N688   1.316       .  A
N687       Mn690   2.181   1_545  S
N688        C692   1.346       .  A
Mn689      Cl691   2.603       .  S
Mn690      Cl691   2.466       .  S
C692        C940   1.489       .  S
C693        C928   1.467       .  S
N694        N695   1.331       .  A
N694        N700   1.310       .  A
N694       Mn723   2.236   1_545  S
N695        C702   1.361       .  A
N696        N698   1.313       .  A
N696        N697   1.320       .  A
N696       Mn712   2.183       .  S
N697        C703   1.348       .  A
N698        N699   1.329       .  A
N698       Mn723   2.226       .  S
N699        C703   1.358       .  A
N700        N701   1.320       .  A
N700       Mn712   2.186   1_545  S
N701        C702   1.350       .  A
C702       C1036   1.506       .  S
C703       C1024   1.498       .  S
N704        N710   1.320       .  A
N704        N705   1.331       .  A
N704       Mn734   2.252       .  S
N705        C713   1.363       .  A
N706        N707   1.310       .  A
N706        N708   1.321       .  A
N706       Mn712   2.159   1_545  S
N707        C714   1.336       .  A
N708        N709   1.331       .  A
N708       Mn734   2.263   1_545  S
N709        C714   1.363       .  A
N710        N711   1.311       .  A
N710       Mn712   2.164       .  S
N711        C713   1.337       .  A
Mn712      Cl736   2.486       .  S
C713        C841   1.469       .  S
C714        C865   1.471       .  S
N715        N716   1.330       .  A
N715        N721   1.312       .  A
N715       Mn723   2.231       .  S
N716        C724   1.358       .  A
N717        N719   1.314       .  A
N717        N718   1.316       .  A
N717       Mn735   2.173   1_545  S
N718        C725   1.345       .  A
N719        N720   1.328       .  A
N719       Mn723   2.219   1_545  S
N720        C725   1.357       .  A
N721        N722   1.315       .  A
N721       Mn735   2.171       .  S
N722        C724   1.346       .  A
Mn723      Cl736   2.585       .  S
C724        C949   1.493       .  S
C725        C964   1.492       .  S
N726        N727   1.330       .  A
N726        N732   1.321       .  A
N726       Mn734   2.248   1_545  S
N727        C737   1.361       .  A
N728        N729   1.313       .  A
N728        N730   1.321       .  A
N728       Mn735   2.177       .  S
N729        C738   1.341       .  A
N730        N731   1.331       .  A
N730       Mn734   2.256       .  S
N731        C738   1.363       .  A
N732        N733   1.313       .  A
N732       Mn735   2.174   1_545  S
N733        C737   1.340       .  A
Mn734      Cl736   2.592       .  S
Mn735      Cl736   2.486       .  S
C737        C853   1.475       .  S
C738        C829   1.485       .  S
N739        N740   1.329       .  A
N739        N745   1.322       .  A
N740        C747   1.361       .  A
N741        N743   1.323       .  A
N741        N742   1.312       .  A
N741       Mn757   2.175       .  S
N742        C748   1.340       .  A
N743        N744   1.333       .  A
N744        C748   1.364       .  A
N745        N746   1.314       .  A
N745       Mn757   2.187       .  S
N746        C747   1.342       .  A
C747        C916   1.479       .  S
C748        C868   1.493       .  S
N749        N755   1.312       .  A
N749        N750   1.321       .  A
N750        C758   1.353       .  A
N751        N752   1.321       .  A
N751        N753   1.313       .  A
N751       Mn757   2.194       .  S
N752        C759   1.349       .  A
N753        N754   1.324       .  A
N754        C759   1.353       .  A
N755        N756   1.323       .  A
N755       Mn757   2.201       .  S
N756        C758   1.354       .  A
C758       C1096   1.494       .  S
C759       C1105   1.475       .  S
N760        N761   1.333       .  A
N760        N766   1.320       .  A
N760       Mn768   2.261   1_655  S
N761        C769   1.365       .  A
N762        N764   1.320       .  A
N762        N763   1.310       .  A
N762       Mn780   2.155       .  S
N763        C770   1.336       .  A
N764        N765   1.332       .  A
N764       Mn768   2.263   1_655  S
N765        C770   1.363       .  A
N766        N767   1.308       .  A
N766       Mn780   2.156       .  S
N767        C769   1.336       .  A
Mn768      Cl781   2.597       .  S
C769        C856   1.472       .  S
C770        C904   1.470       .  S
N771        N772   1.326       .  A
N771        N777   1.311       .  A
N771       Mn779   2.220       .  S
N772        C782   1.358       .  A
N773        N774   1.322       .  A
N773        N775   1.312       .  A
N773       Mn780   2.173       .  S
N774        C783   1.346       .  A
N775        N776   1.325       .  A
N775       Mn779   2.226       .  S
N776        C783   1.357       .  A
N777        N778   1.319       .  A
N777       Mn780   2.176       .  S
N778        C782   1.348       .  A
Mn779      Cl781   2.584   1_655  S
Mn780      Cl781   2.492   1_655  S
C782       C1012   1.492       .  S
C783        C997   1.484       .  S
N784        N785   1.324       .  A
N784        N790   1.313       .  A
N785        C792   1.356       .  A
N786        N788   1.313       .  A
N786        N787   1.319       .  A
N786       Mn802   2.169       .  S
N787        C793   1.345       .  A
N788        N789   1.325       .  A
N789        C793   1.356       .  A
N790        N791   1.318       .  A
N790       Mn802   2.171       .  S
N791        C792   1.347       .  A
C792       C1081   1.485       .  S
C793       C1072   1.483       .  S
N794        N800   1.322       .  A
N794        N795   1.331       .  A
N795        C803   1.363       .  A
N796        N797   1.312       .  A
N796        N798   1.321       .  A
N796       Mn802   2.171       .  S
N797        C804   1.340       .  A
N798        N799   1.332       .  A
N799        C804   1.364       .  A
N800        N801   1.313       .  A
N800       Mn802   2.171       .  S
N801        C803   1.340       .  A
C803        C844   1.488       .  S
C804        C892   1.488       .  S
N805        N806   1.325       .  A
N805        N811   1.311       .  A
N805       Mn813   2.214       .  S
N806        C814   1.358       .  A
N807        N809   1.312       .  A
N807        N808   1.321       .  A
N807       Mn825   2.191       .  S
N808        C815   1.350       .  A
N809        N810   1.327       .  A
N809       Mn813   2.220       .  S
N810        C815   1.357       .  A
N811        N812   1.321       .  A
N811       Mn825   2.186       .  S
N812        C814   1.349       .  A
Mn813      Cl826   2.589   1_655  S
C814        C973   1.490       .  S
C815        C988   1.485       .  S
N816        N817   1.331       .  A
N816        N822   1.321       .  A
N816       Mn824   2.259   1_655  S
N817        C827   1.363       .  A
N818        N819   1.310       .  A
N818        N820   1.321       .  A
N818       Mn825   2.158       .  S
N819        C828   1.336       .  A
N820        N821   1.332       .  A
N820       Mn824   2.266   1_655  S
N821        C828   1.365       .  A
N822        N823   1.311       .  A
N822       Mn825   2.163       .  S
N823        C827   1.337       .  A
Mn824      Cl826   2.595       .  S
Mn825      Cl826   2.481   1_655  S
C827        C880   1.473       .  S
C828        C832   1.472       .  S
C829        C830   1.405       .  A
C829        C834   1.412       .  A
C830        C831   1.409       .  A
C830        H835   1.083       .  S
C831        C832   1.411       .  A
C831        O836   1.371       .  S
C832        C833   1.400       .  A
C833        C834   1.399       .  A
C833        H837   1.084       .  S
C834        O838   1.372       .  S
O836        H840   0.992       .  S
O838        H839   0.993       .  S
C841        C842   1.407       .  A
C841        C846   1.401       .  A
C842        C843   1.406       .  A
C842        H847   1.084       .  S
C843        C844   1.409       .  A
C843        O848   1.371       .  S
C844        C845   1.411       .  A
C845        C846   1.400       .  A
C845        H849   1.084       .  S
C846        O850   1.372       .  S
O848        H852   0.992       .  S
O850        H851   0.992       .  S
C853        C854   1.406       .  A
C853        C858   1.405       .  A
C854        C855   1.410       .  A
C854        H859   1.084       .  S
C855        C856   1.409       .  A
C855        O860   1.371       .  S
C856        C857   1.403       .  A
C857        C858   1.395       .  A
C857        H861   1.085       .  S
C858        O862   1.371       .  S
O860        H864   0.991       .  S
O862        H863   0.992       .  S
C865        C866   1.409       .  A
C865        C870   1.401       .  A
C866        C867   1.410       .  A
C866        H871   1.084       .  S
C867        C868   1.410       .  A
C867        O872   1.371       .  S
C868        C869   1.411       .  A
C869        C870   1.399       .  A
C869        H873   1.083       .  S
C870        O874   1.373       .  S
O872        H876   0.993       .  S
O874        H875   0.992       .  S
C877        C878   1.415       .  A
C877        C882   1.407       .  A
C878        C879   1.400       .  A
C878        H883   1.083       .  S
C879        C880   1.399       .  A
C879        O884   1.372       .  S
C880        C881   1.409       .  A
C881        C882   1.407       .  A
C881        H885   1.084       .  S
C882        O886   1.371       .  S
O884        H888   0.990       .  S
O886        H887   0.990       .  S
C889        C890   1.397       .  A
C889        C894   1.412       .  A
C890        C891   1.398       .  A
C890        H895   1.084       .  S
C891        C892   1.416       .  A
C891        O896   1.372       .  S
C892        C893   1.404       .  A
C893        C894   1.408       .  A
C893        H897   1.083       .  S
C894        O898   1.371       .  S
O896        H900   0.992       .  S
O898        H899   0.991       .  S
C901        C902   1.403       .  A
C901        C906   1.418       .  A
C902        C903   1.407       .  A
C902        H907   1.083       .  S
C903        C904   1.412       .  A
C903        O908   1.371       .  S
C904        C905   1.396       .  A
C905        C906   1.400       .  A
C905        H909   1.084       .  S
C906        O910   1.372       .  S
O908        H912   0.991       .  S
O910        H911   0.993       .  S
C913        C914   1.403       .  A
C913        C918   1.410       .  A
C914        C915   1.399       .  A
C914        H919   1.084       .  S
C915        C916   1.408       .  A
C915        O920   1.372       .  S
C916        C917   1.405       .  A
C917        C918   1.409       .  A
C917        H921   1.083       .  S
C918        O922   1.371       .  S
O920        H924   0.991       .  S
O922        H923   0.992       .  S
C925        C926   1.411       .  A
C925        C930   1.404       .  A
C926        C927   1.392       .  A
C926        H931   1.084       .  S
C927        C928   1.396       .  A
C927        O932   1.373       .  S
C928        C929   1.409       .  A
C929        C930   1.409       .  A
C929        H933   1.084       .  S
C930        O934   1.370       .  S
O932        H936   0.991       .  S
O934        H935   0.992       .  S
C937        C938   1.398       .  A
C937        C942   1.411       .  A
C938        C939   1.396       .  A
C938        H943   1.084       .  S
C939        C940   1.415       .  A
C939        O944   1.370       .  S
C940        C941   1.406       .  A
C941        C942   1.408       .  A
C941        H945   1.084       .  S
C942        O946   1.370       .  S
O944        H948   0.994       .  S
O946        H947   0.991       .  S
C949        C950   1.405       .  A
C949        C954   1.415       .  A
C950        C951   1.416       .  A
C950        H955   1.083       .  S
C951        C952   1.410       .  A
C951        O956   1.376       .  S
C952        C953   1.397       .  A
C953        C954   1.396       .  A
C953        H957   1.084       .  S
C954        O958   1.371       .  S
O956        H960   0.991       .  S
O958        H959   0.992       .  S
C961        C962   1.405       .  A
C961        C966   1.406       .  A
C962        C963   1.394       .  A
C962        H967   1.084       .  S
C963        C964   1.412       .  A
C963        O968   1.371       .  S
C964        C965   1.408       .  A
C965        C966   1.411       .  A
C965        H969   1.079       .  S
C966        O970   1.368       .  S
O968        H972   0.991       .  S
O970        H971   0.993       .  S
C973        C974   1.408       .  A
C973        C978   1.405       .  A
C974        C975   1.406       .  A
C974        H979   1.083       .  S
C975        C976   1.410       .  A
C975        O980   1.371       .  S
C976        C977   1.406       .  A
C977        C978   1.401       .  A
C977        H981   1.083       .  S
C978        O982   1.366       .  S
O980        H984   0.992       .  S
O982        H983   0.993       .  S
C985        C986   1.403       .  A
C985        C990   1.408       .  A
C986        C987   1.406       .  A
C986        H991   1.083       .  S
C987        C988   1.412       .  A
C987        O992   1.372       .  S
C988        C989   1.402       .  A
C989        C990   1.406       .  A
C989        H993   1.083       .  S
C990        O994   1.370       .  S
O992        H996   0.992       .  S
O994        H995   0.992       .  S
C997        C998   1.402       .  A
C997       C1002   1.408       .  A
C998        C999   1.406       .  A
C998       H1003   1.083       .  S
C999       C1000   1.413       .  A
C999       O1004   1.371       .  S
C1000      C1001   1.402       .  A
C1001      C1002   1.406       .  A
C1001      H1005   1.083       .  S
C1002      O1006   1.371       .  S
O1004      H1008   0.990       .  S
O1006      H1007   0.991       .  S
C1009      C1010   1.404       .  A
C1009      C1014   1.414       .  A
C1010      C1011   1.404       .  A
C1010      H1015   1.083       .  S
C1011      C1012   1.415       .  A
C1011      O1016   1.372       .  S
C1012      C1013   1.403       .  A
C1013      C1014   1.401       .  A
C1013      H1017   1.084       .  S
C1014      O1018   1.368       .  S
O1016      H1020   0.991       .  S
O1018      H1019   0.982       .  S
C1021      C1022   1.406       .  A
C1021      C1026   1.406       .  A
C1022      C1023   1.401       .  A
C1022      H1027   1.084       .  S
C1023      C1024   1.414       .  A
C1023      O1028   1.372       .  S
C1024      C1025   1.410       .  A
C1025      C1026   1.412       .  A
C1025      H1029   1.081       .  S
C1026      O1030   1.368       .  S
O1028      H1032   0.991       .  S
O1030      H1031   0.991       .  S
C1033      C1034   1.400       .  A
C1033      C1038   1.414       .  A
C1034      C1035   1.403       .  A
C1034      H1039   1.084       .  S
C1035      C1036   1.418       .  A
C1035      O1040   1.371       .  S
C1036      C1037   1.410       .  A
C1037      C1038   1.412       .  A
C1037      H1041   1.083       .  S
C1038      O1042   1.374       .  S
O1040      H1044   0.993       .  S
O1042      H1043   0.988       .  S
C1045      C1046   1.402       .  A
C1045      C1050   1.408       .  A
C1046      C1047   1.399       .  A
C1046      H1051   1.084       .  S
C1047      C1048   1.414       .  A
C1047      O1052   1.372       .  S
C1048      C1049   1.408       .  A
C1049      C1050   1.406       .  A
C1049      H1053   1.084       .  S
C1050      O1054   1.370       .  S
O1052      H1056   0.991       .  S
O1054      H1055   0.993       .  S
C1057      C1058   1.392       .  A
C1057      C1062   1.413       .  A
C1058      C1059   1.396       .  A
C1058      H1063   1.084       .  S
C1059      C1060   1.420       .  A
C1059      O1064   1.374       .  S
C1060      C1061   1.403       .  A
C1061      C1062   1.411       .  A
C1061      H1065   1.083       .  S
C1062      O1066   1.372       .  S
O1064      H1068   0.992       .  S
O1066      H1067   0.993       .  S
C1069      C1070   1.404       .  A
C1069      C1074   1.404       .  A
C1070      C1071   1.404       .  A
C1070      H1075   1.084       .  S
C1071      C1072   1.411       .  A
C1071      O1076   1.372       .  S
C1072      C1073   1.404       .  A
C1073      C1074   1.400       .  A
C1073      H1077   1.082       .  S
C1074      O1078   1.366       .  S
O1076      H1080   0.991       .  S
C1081      C1082   1.402       .  A
C1081      C1086   1.415       .  A
C1082      C1083   1.398       .  A
C1082      H1087   1.084       .  S
C1083      C1084   1.411       .  A
C1083      O1088   1.367       .  S
C1084      C1085   1.403       .  A
C1085      C1086   1.403       .  A
C1085      H1089   1.083       .  S
C1086      O1090   1.371       .  S
O1088      H1092   0.991       .  S
O1090      H1091   0.992       .  S
C1093      C1094   1.403       .  A
C1093      C1098   1.413       .  A
C1094      C1095   1.400       .  A
C1094      H1099   1.083       .  S
C1095      C1096   1.415       .  A
C1095      O1100   1.369       .  S
C1096      C1097   1.406       .  A
C1097      C1098   1.404       .  A
C1097      H1101   1.083       .  S
C1098      O1102   1.371       .  S
O1102      H1103   0.991       .  S
C1105      C1106   1.401       .  A
C1105      C1110   1.408       .  A
C1106      C1107   1.404       .  A
C1106      H1111   1.084       .  S
C1107      C1108   1.412       .  A
C1107      O1112   1.372       .  S
C1108      C1109   1.400       .  A
C1109      C1110   1.403       .  A
C1109      H1113   1.084       .  S
C1110      O1114   1.372       .  S
O1112      H1116   0.992       .  S
