geometry optimzed in LAMMPS
_audit_creation_date              2020-11-30 
_audit_creation_method            'lammps2cif' 
_symmetry_space_group_name_H-M    'P1' 
_symmetry_Int_Tables_number       1 
_symmetry_cell_setting            triclinic 
loop_ 
_symmetry_equiv_pos_as_xyz 
  x,y,z 
_cell_length_a                    55.74661472 
_cell_length_b                    55.54624910855678 
_cell_length_c                    81.46558447287056 
_cell_angle_alpha                 89.92944770965366 
_cell_angle_beta                  90.01390211485844 
_cell_angle_gamma                 89.94636383868371 
loop_ 
_atom_site_label 
_atom_site_type_symbol 
_atom_site_fract_x 
_atom_site_fract_y 
_atom_site_fract_z 
_atom_site_charge 
C1          C  0.98782212  0.63055297  0.98390946     0.03000
C2          C  0.98663956  0.60530478  0.98472449    -0.13100
C3          C  0.99334871  0.59270257  0.99902704     0.00500
C4          C  0.00010278  0.60622508  0.01293490    -0.11700
C5          C  0.99972781  0.63151509  0.01271968     0.03000
C6          C  0.99408652  0.64352155  0.99805658    -0.11100
H7          H  0.98018520  0.59562147  0.97411041     0.08600
H8          H  0.00611253  0.59734082  0.02400420     0.06100
H9          H  0.99458481  0.66300240  0.99768652     0.06000
C10         C  0.56355273  0.08424155  0.01746254     0.03000
C11         C  0.53832653  0.08349314  0.01715436    -0.13100
C12         C  0.52572648  0.07788367  0.00259084     0.00500
C13         C  0.53923600  0.07339621  0.98825510    -0.11700
C14         C  0.56431356  0.07589972  0.98802326     0.03000
C15         C  0.57627513  0.08115152  0.00274918    -0.11100
H16         H  0.52875238  0.08693200  0.02842609     0.08600
H17         H  0.53044465  0.06747731  0.97714788     0.06100
H18         H  0.59559056  0.08318334  0.00279826     0.06000
C19         C  0.95835966  0.57501573  0.48686519     0.03000
C20         C  0.98343569  0.57297952  0.48655827    -0.13100
C21         C  0.99724983  0.57629561  0.50089547     0.00500
C22         C  0.98499578  0.58142899  0.51565347    -0.11700
C23         C  0.95974102  0.58111405  0.51654876     0.03000
C24         C  0.94665322  0.57820887  0.50192889    -0.11100
H25         H  0.99193482  0.56897913  0.47497129     0.08600
H26         H  0.99500727  0.58591499  0.52655369     0.06100
H27         H  0.92725645  0.57785111  0.50213162     0.06000
C28         C  0.49846821  0.02766653  0.51184411     0.03000
C29         C  0.49689084  0.05293641  0.51193721    -0.13100
C30         C  0.50265633  0.06670329  0.49788931     0.00500
C31         C  0.50904564  0.05437707  0.48342964    -0.11700
C32         C  0.50952845  0.02911512  0.48287891     0.03000
C33         C  0.50457799  0.01591125  0.49718020    -0.11100
H34         H  0.49089196  0.06169067  0.52304955     0.08600
H35         H  0.51426137  0.06424423  0.47255276     0.06100
H36         H  0.50550920  0.99643409  0.49687526     0.06000
C37         C  0.50730099  0.13104399  0.51422644     0.03000
C38         C  0.50434493  0.14440843  0.49976924    -0.13100
C39         C  0.50059785  0.13301162  0.48464290     0.00500
C40         C  0.49907559  0.10773508  0.48415394    -0.11700
C41         C  0.50272708  0.09374014  0.49846981     0.03000
C42         C  0.50710835  0.10581858  0.51339661    -0.11100
H43         H  0.50509725  0.16388172  0.50026757     0.08600
H44         H  0.49545329  0.09914410  0.47251660     0.06100
H45         H  0.51033392  0.09572571  0.52452530     0.06000
C46         C  0.06164362  0.57092306  0.48477700     0.03000
C47         C  0.07382795  0.56439905  0.49917112    -0.13100
C48         C  0.06221155  0.56415857  0.51445128     0.00500
C49         C  0.03722815  0.56787463  0.51487574    -0.11700
C50         C  0.02415736  0.57360232  0.50051158     0.03000
C51         C  0.03701616  0.57616909  0.48568329    -0.11100
H52         H  0.09253658  0.55934857  0.49846131     0.08600
H53         H  0.02811541  0.56640315  0.52648426     0.06100
H54         H  0.02808349  0.58255644  0.47475350     0.06000
C55         C  0.69362788  0.07997007  0.83482275     0.80100
N56         N  0.67950917  0.08142387  0.84838803    -0.78200
C57         C  0.66846537  0.06150128  0.85444762     0.82600
N58         N  0.67171884  0.03996542  0.84687358    -0.78100
C59         C  0.68598980  0.03818036  0.83341613     0.82600
N60         N  0.69679623  0.05827718  0.82746018    -0.79900
O61         O  0.73637063  0.29304697  0.77250603    -0.74500
O62         O  0.75003594  0.35031941  0.74833669    -0.74600
O63         O  0.71456770  0.31708895  0.74773951    -0.74600
O64         O  0.77194838  0.32618463  0.77298400    -0.74700
O65         O  0.79240773  0.30457253  0.75469555    -0.74600
O66         O  0.73527082  0.29582718  0.72938692    -0.74600
O67         O  0.77081698  0.32911177  0.72999944    -0.74600
O68         O  0.75680333  0.27140922  0.75421703    -0.74600
Ni69       Ni  0.74249999  0.32241370  0.76103129     1.25400
Ni70       Ni  0.76455100  0.29944919  0.74142067     1.25400
C71         C  0.74431054  0.27275567  0.76740950     0.87600
C72         C  0.76271332  0.34930504  0.73524799     0.87600
C73         C  0.71546194  0.30495873  0.73436974     0.87600
C74         C  0.79169776  0.31690965  0.76796452     0.87800
O75         O  0.76524257  0.79632645  0.76530626    -0.74500
O76         O  0.70975066  0.80846250  0.73867177    -0.74600
O77         O  0.74412410  0.77346618  0.73966984    -0.74600
O78         O  0.73103010  0.83103823  0.76415521    -0.74700
O79         O  0.75375453  0.85192826  0.74672358    -0.74600
O80         O  0.76646718  0.79475046  0.72224596    -0.74600
O81         O  0.73226993  0.82963743  0.72129237    -0.74600
O82         O  0.78769202  0.81729096  0.74776195    -0.74600
Ni83       Ni  0.73672770  0.80150773  0.75255547     1.25400
Ni84       Ni  0.76081562  0.82409133  0.73386856     1.25400
C85         C  0.78561495  0.80495099  0.76098310     0.87600
C86         C  0.71174053  0.82164054  0.72581058     0.87600
C87         C  0.75771793  0.77459748  0.72698817     0.87600
C88         C  0.74027968  0.85100639  0.75943403     0.87800
C89         C  0.97764061  0.76310355  0.83185932     0.80100
N90         N  0.97659853  0.74859111  0.84528338    -0.78200
C91         C  0.99700571  0.74045386  0.85254311     0.82600
N92         N  0.01860788  0.74701766  0.84623376    -0.78100
C93         C  0.01997621  0.76155128  0.83284201     0.82600
N94         N  0.99939579  0.76948332  0.82572819    -0.79900
O95         O  0.21059047  0.83429438  0.75100280    -0.74500
O96         O  0.26997279  0.84224858  0.72802006    -0.74600
O97         O  0.23282150  0.81088442  0.72618619    -0.74600
O98         O  0.24789138  0.86564476  0.75291731    -0.74700
O99         O  0.26578222  0.84154151  0.77106519    -0.74600
O100        O  0.25122148  0.78706183  0.74426786    -0.74600
O101        O  0.28822690  0.81853652  0.74623990    -0.74600
O102        O  0.22864193  0.81017602  0.76906284    -0.74600
Ni103      Ni  0.23966513  0.83913447  0.73889632     1.25400
Ni104      Ni  0.25909835  0.81347899  0.75830011     1.25400
C105        C  0.20971577  0.82074577  0.76373255     0.87600
C106        C  0.28894944  0.83183889  0.73337546     0.87600
C107        C  0.23951171  0.78988217  0.73086761     0.87600
C108        C  0.25953354  0.86263285  0.76634727     0.87800
C109        C  0.97743435  0.37246799  0.84313746     0.80100
N110        N  0.97881800  0.38616944  0.85694226    -0.78200
C111        C  0.00048326  0.39211138  0.86346279     0.82600
N112        N  0.02080783  0.38425247  0.85600384    -0.78100
C113        C  0.01977029  0.37059115  0.84221974     0.82600
N114        N  0.99801042  0.36478949  0.83586209    -0.79900
O115        O  0.25225781  0.28725007  0.76224084    -0.74500
O116        O  0.23607333  0.34175270  0.73576055    -0.74600
O117        O  0.27306771  0.31013804  0.73659775    -0.74600
O118        O  0.21535689  0.31895473  0.76151827    -0.74700
O119        O  0.23511987  0.34277076  0.77885005    -0.74600
O120        O  0.29265035  0.33408233  0.75394437    -0.74600
O121        O  0.25565033  0.36575825  0.75306838    -0.74600
O122        O  0.27207716  0.31094886  0.77961689    -0.74600
Ni123      Ni  0.24349453  0.31368303  0.74842090     1.25400
Ni124      Ni  0.26456396  0.33924998  0.76699116     1.25400
C125        C  0.26487015  0.28998781  0.77525010     0.87600
C126        C  0.24317672  0.36276845  0.73999147     0.87600
C127        C  0.29242884  0.32059676  0.74119996     0.87600
C128        C  0.21571102  0.33239022  0.77430299     0.87800
C129        C  0.32334372  0.09364074  0.83643695     0.80100
N130        N  0.31721541  0.07289266  0.82881460    -0.78200
C131        C  0.32403752  0.05119242  0.83478642     0.82600
N132        N  0.33737768  0.05027470  0.84874414    -0.78100
C133        C  0.34385713  0.07092614  0.85661406     0.82600
N134        N  0.33671834  0.09258588  0.85038403    -0.79900
C135        C  0.19192376  0.55172051  0.66724002     0.80100
N136        N  0.19624531  0.57336108  0.67433327    -0.78200
C137        C  0.18691388  0.59397236  0.66802205     0.82600
N138        N  0.17291770  0.59279662  0.65436511    -0.78100
C139        C  0.16847426  0.57121752  0.64706032     0.82600
N140        N  0.17804820  0.55078999  0.65356100    -0.79900
C141        C  0.47774559  0.26441830  0.66575315     0.80100
N142        N  0.49863130  0.27063853  0.67317047    -0.78200
C143        C  0.52011518  0.26433798  0.66655658     0.82600
N144        N  0.52056997  0.25157788  0.65230710    -0.78100
C145        C  0.49977270  0.24523642  0.64472122     0.82600
N146        N  0.47850796  0.25172872  0.65155170    -0.79900
C147        C  0.47684402  0.89051441  0.66224150     0.80100
N148        N  0.47813783  0.90398140  0.64834404    -0.78200
C149        C  0.49970263  0.91036491  0.64187813     0.82600
N150        N  0.52021850  0.90306544  0.64951624    -0.78100
C151        C  0.51921334  0.88950179  0.66344184     0.82600
N152        N  0.49745406  0.88337756  0.66967418    -0.79900
C153        C  0.82113964  0.53765276  0.66334808     0.80100
N154        N  0.83366674  0.53961958  0.64908836    -0.78200
C155        C  0.83953410  0.56160883  0.64296241     0.82600
N156        N  0.83256822  0.58171387  0.65114662    -0.78100
C157        C  0.81981731  0.58009661  0.66530492     0.82600
N158        N  0.81424252  0.55798831  0.67135167    -0.79900
C159        C  0.46014862  0.07125721  0.01639213     0.03000
C160        C  0.44815437  0.07327766  0.00131578    -0.13100
C161        C  0.46090102  0.07724211  0.98673544     0.00500
C162        C  0.48597156  0.07956994  0.98739675    -0.11700
C163        C  0.49872264  0.07652299  0.00225798     0.03000
C164        C  0.48535373  0.07219787  0.01669992    -0.11100
H165        H  0.42873692  0.07260339  0.00098059     0.08600
H166        H  0.49537124  0.08363794  0.97612576     0.06100
H167        H  0.49428005  0.06911951  0.02828263     0.06000
C168        C  0.99554811  0.52684760  0.98503766     0.03000
C169        C  0.99362629  0.51488236  0.00010391    -0.13100
C170        C  0.99174147  0.52776090  0.01480692     0.00500
C171        C  0.99091779  0.55301777  0.01431382    -0.11700
C172        C  0.99334411  0.56564836  0.99937280     0.03000
C173        C  0.99595684  0.55213947  0.98478576    -0.11100
H174        H  0.99300156  0.49538943  0.00037218     0.08600
H175        H  0.98858468  0.56265274  0.02570624     0.06100
H176        H  0.99877423  0.56104791  0.97314119     0.06000
C177        C  0.02837335  0.77060584  0.16150749     0.80100
N178        N  0.02701892  0.75629317  0.14800267    -0.78200
C179        C  0.00548433  0.75098292  0.14108598     0.82600
N180        N  0.98516901  0.76021483  0.14781258    -0.78100
C181        C  0.98616519  0.77459983  0.16127390     0.82600
N182        N  0.00784932  0.77967181  0.16806864    -0.79900
O183        O  0.24273489  0.80825795  0.26978807    -0.74500
O184        O  0.25881542  0.86311675  0.24355847    -0.74600
O185        O  0.22083354  0.83287516  0.24542209    -0.74600
O186        O  0.28065442  0.83858361  0.26804053    -0.74700
O187        O  0.29815097  0.81479856  0.24956238    -0.74600
O188        O  0.23800492  0.80883029  0.22696361    -0.74600
O189        O  0.27605987  0.83911330  0.22509791    -0.74600
O190        O  0.26015319  0.78433082  0.25136066    -0.74600
Ni191      Ni  0.25016882  0.83656342  0.25735463     1.25400
Ni192      Ni  0.26871153  0.81090099  0.23759139     1.25400
C193        C  0.24859050  0.78718411  0.26480929     0.87600
C194        C  0.27016902  0.86018498  0.23002491     0.87600
C195        C  0.21944136  0.81978067  0.23252856     0.87600
C196        C  0.29931705  0.82783264  0.26251953     0.87800
O197        O  0.75859284  0.81087713  0.25246059    -0.74500
O198        O  0.75152042  0.87101563  0.22997109    -0.74600
O199        O  0.78470415  0.83519676  0.22989104    -0.74600
O200        O  0.72557604  0.84671166  0.25249561    -0.74700
O201        O  0.74563894  0.86507696  0.27254705    -0.74600
O202        O  0.80472086  0.85376468  0.24987445    -0.74600
O203        O  0.77150728  0.88954911  0.24998508    -0.74600
O204        O  0.77881622  0.82924314  0.27243677    -0.74600
Ni205      Ni  0.75441691  0.84029512  0.24048646     1.25400
Ni206      Ni  0.77588841  0.86006404  0.26192306     1.25400
C207        C  0.76996290  0.81007162  0.26612272     0.87600
C208        C  0.76001367  0.89027949  0.23636144     0.87600
C209        C  0.80450354  0.84241564  0.23619162     0.87600
C210        C  0.72582974  0.85795111  0.26621981     0.87800
C211        C  0.69324725  0.07999777  0.16977586     0.80100
N212        N  0.67889851  0.08101367  0.15628529    -0.78200
C213        C  0.67140730  0.10253327  0.15014543     0.82600
N214        N  0.67843320  0.12319184  0.15768283    -0.78100
C215        C  0.69265263  0.12247486  0.17123872     0.82600
N216        N  0.69994124  0.10081559  0.17719179    -0.79900
O217        O  0.74839552  0.37176561  0.23870143    -0.74500
O218        O  0.68642196  0.36267166  0.25823431    -0.74600
O219        O  0.72144582  0.39636504  0.26054560    -0.74600
O220        O  0.71334785  0.33824252  0.23617662    -0.74700
O221        O  0.73007877  0.31729696  0.25652537    -0.74600
O222        O  0.73842118  0.37578205  0.28097446    -0.74600
O223        O  0.70342593  0.34205072  0.27862990    -0.74600
O224        O  0.76516974  0.35082852  0.25904147    -0.74600
Ni225      Ni  0.71679865  0.36799733  0.24770345     1.25400
Ni226      Ni  0.73485657  0.34575258  0.26953088     1.25400
C227        C  0.76702266  0.36279284  0.24565397     0.87600
C228        C  0.68470259  0.35070782  0.27165676     0.87600
C229        C  0.73146122  0.39578986  0.27468368     0.87600
C230        C  0.72034086  0.31816261  0.24226409     0.87800
C231        C  0.31332851  0.05334835  0.16159799     0.80100
N232        N  0.30509031  0.07391959  0.16850389    -0.78200
C233        C  0.31238047  0.09578291  0.16307217     0.82600
N234        N  0.32827179  0.09701239  0.15042169    -0.78100
C235        C  0.33679448  0.07650550  0.14332385     0.82600
N236        N  0.32922044  0.05474562  0.14900881    -0.79900
C237        C  0.99860879  0.40261964  0.16924199     0.80100
N238        N  0.97794364  0.39864971  0.17773586    -0.78200
C239        C  0.95666546  0.40729373  0.17198216     0.82600
N240        N  0.95627807  0.41987905  0.15767576    -0.78100
C241        C  0.97671035  0.42395347  0.14911436     0.82600
N242        N  0.99775263  0.41528693  0.15499425    -0.79900
O243        O  0.19044370  0.31405297  0.24147297    -0.74500
O244        O  0.25100844  0.30629942  0.26295497    -0.74600
O245        O  0.21402981  0.33771588  0.26551270    -0.74600
O246        O  0.22754316  0.28252551  0.23878701    -0.74700
O247        O  0.24482056  0.30622149  0.22014609    -0.74600
O248        O  0.23118251  0.36126378  0.24672948    -0.74600
O249        O  0.26828435  0.32995054  0.24428496    -0.74600
O250        O  0.20765311  0.33757990  0.22269873    -0.74600
Ni251      Ni  0.22014995  0.30926478  0.25282532     1.25400
Ni252      Ni  0.23858887  0.33456342  0.23278577     1.25400
C253        C  0.18895160  0.32743769  0.22869591     0.87600
C254        C  0.26961430  0.31697817  0.25727888     0.87600
C255        C  0.22029191  0.35865843  0.26046730     0.87600
C256        C  0.23864217  0.28524215  0.22512252     0.87800
C257        C  0.49738814  0.28287548  0.33918559     0.80100
N258        N  0.49779690  0.26814138  0.35253221    -0.78200
C259        C  0.47724872  0.25822001  0.35844533     0.82600
N260        N  0.45612490  0.26321807  0.35083427    -0.78100
C261        C  0.45536736  0.27793262  0.33749277     0.82600
N262        N  0.47609276  0.28764543  0.33173456    -0.79900
C263        C  0.18114817  0.55392898  0.32855973     0.80100
N264        N  0.16834120  0.55474880  0.34273022    -0.78200
C265        C  0.16063454  0.57616339  0.34886852     0.82600
N266        N  0.16591496  0.59690337  0.34074588    -0.78100
C267        C  0.17887886  0.59632227  0.32662024     0.82600
N268        N  0.18634014  0.57478656  0.32064747    -0.79900
C269        C  0.81100423  0.57788049  0.34160818     0.80100
N270        N  0.80762823  0.59907160  0.33357098    -0.78200
C271        C  0.81875366  0.61948123  0.33873438     0.82600
N272        N  0.83341194  0.61849642  0.35206880    -0.78100
C273        C  0.83693334  0.59744888  0.36024700     0.82600
N274        N  0.82564055  0.57727150  0.35492814    -0.79900
C275        C  0.52747006  0.89613012  0.33073898     0.80100
N276        N  0.52773397  0.90939928  0.34475792    -0.78200
C277        C  0.50698166  0.91469367  0.35274090     0.82600
N278        N  0.48585039  0.90652358  0.34655851    -0.78100
C279        C  0.48529545  0.89317167  0.33259920     0.82600
N280        N  0.50618228  0.88811943  0.32476323    -0.79900
C281        C  0.29279058  0.31452784  0.26601897    -0.03300
C282        C  0.31381131  0.32496254  0.25969392    -0.05900
C283        C  0.33547753  0.32317039  0.26828426    -0.21000
C284        C  0.33666032  0.31081113  0.28330990     0.24700
C285        C  0.31554288  0.30053733  0.28969172    -0.18600
C286        C  0.29393910  0.30225500  0.28108844    -0.08500
C287        C  0.36001283  0.30959350  0.29213392    -0.18800
C288        C  0.36523266  0.29245953  0.30332169    -0.23600
C289        C  0.38846287  0.29042155  0.31222851     0.26800
C290        C  0.38955690  0.27507614  0.32591274    -0.20400
C291        C  0.41111429  0.27138367  0.33427623    -0.10000
C292        C  0.43225031  0.28285497  0.32909020    -0.10600
C293        C  0.43114925  0.29854717  0.31554122    -0.03500
C294        C  0.40953299  0.30227980  0.30717324    -0.18600
H295        H  0.31352197  0.33461756  0.24813679     0.10500
H296        H  0.35140228  0.33140549  0.26314379     0.10600
H297        H  0.31534633  0.29162644  0.30149202     0.10200
H298        H  0.27802146  0.29426597  0.28640863     0.11300
H299        H  0.37327628  0.32306283  0.28896812     0.11400
H300        H  0.35192862  0.27884788  0.30614016     0.13300
H301        H  0.37366064  0.26568599  0.33008682     0.09800
H302        H  0.41123584  0.25920675  0.34466780     0.11900
H303        H  0.44708286  0.30769324  0.31120803     0.08500
H304        H  0.40975600  0.31392136  0.29654196     0.11300
C305        C  0.21479602  0.38019158  0.27050378    -0.03300
C306        C  0.20356015  0.37802573  0.28588464    -0.05900
C307        C  0.19823463  0.39852537  0.29518136    -0.21000
C308        C  0.20421194  0.42156083  0.28938408     0.24700
C309        C  0.21512476  0.42371685  0.27387470    -0.18600
C310        C  0.22044761  0.40327979  0.26460690    -0.08500
C311        C  0.19787287  0.44299689  0.29941204    -0.18800
C312        C  0.20966596  0.46409439  0.29817997    -0.23600
C313        C  0.20263063  0.48653879  0.30686414     0.26800
C314        C  0.21107576  0.50849677  0.30062624    -0.20400
C315        C  0.20433993  0.53026244  0.30780091    -0.10000
C316        C  0.18911319  0.53063431  0.32154530    -0.10600
C317        C  0.18125388  0.50862378  0.32817753    -0.03500
C318        C  0.18792395  0.48677352  0.32091970    -0.18600
H319        H  0.19882964  0.36049946  0.29073659     0.10500
H320        H  0.18953507  0.39638567  0.30697887     0.10600
H321        H  0.21911887  0.44115009  0.26862122     0.10200
H322        H  0.22878906  0.40562787  0.25271123     0.11300
H323        H  0.18298831  0.44116328  0.30787927     0.11400
H324        H  0.22482307  0.46543576  0.28987847     0.13300
H325        H  0.22259843  0.50886329  0.28992117     0.09800
H326        H  0.21095115  0.54682744  0.30244219     0.11900
H327        H  0.16969539  0.50826060  0.33885282     0.08500
H328        H  0.18160126  0.47025256  0.32643996     0.11300
C329        C  0.02201259  0.39351644  0.17529948    -0.03300
C330        C  0.04300757  0.39782297  0.16617850    -0.05900
C331        C  0.06522395  0.38977131  0.17181512    -0.21000
C332        C  0.06705672  0.37698215  0.18658973     0.24700
C333        C  0.04613246  0.37259988  0.19579252    -0.18600
C334        C  0.02381474  0.38078709  0.19017863    -0.08500
C335        C  0.09127210  0.36967288  0.19226381    -0.18800
C336        C  0.09539270  0.35073364  0.20220857    -0.23600
C337        C  0.11972376  0.34388145  0.20810879     0.26800
C338        C  0.12165906  0.32955627  0.22224884    -0.20400
C339        C  0.14414421  0.32364847  0.22870657    -0.10000
C340        C  0.16523125  0.33188616  0.22110144    -0.10600
C341        C  0.16334800  0.34543912  0.20659407    -0.03500
C342        C  0.14088133  0.35124849  0.20009583    -0.18600
H343        H  0.04238837  0.40758227  0.15467144     0.10500
H344        H  0.08108110  0.39352135  0.16456606     0.10600
H345        H  0.04695818  0.36342121  0.20749748     0.10200
H346        H  0.00804288  0.37733719  0.19756522     0.11300
H347        H  0.10615173  0.38038745  0.18782023     0.11400
H348        H  0.08036695  0.34011954  0.20659326     0.13300
H349        H  0.10570091  0.32337920  0.22855178     0.09800
H350        H  0.14496663  0.31309068  0.23987817     0.11900
H351        H  0.17925493  0.35178704  0.20031883     0.08500
H352        H  0.14035208  0.36142318  0.18878768     0.11300
C353        C  0.30279910  0.11779397  0.17100592    -0.03300
C354        C  0.28877655  0.11583077  0.18530294    -0.05900
C355        C  0.27939966  0.13628251  0.19285753    -0.21000
C356        C  0.28352645  0.15921776  0.18626975     0.24700
C357        C  0.29774376  0.16132822  0.17203995    -0.18600
C358        C  0.30727736  0.14078992  0.16449275    -0.08500
C359        C  0.27342951  0.18032103  0.19507138    -0.18800
C360        C  0.26959186  0.20196347  0.18808183    -0.23600
C361        C  0.26018270  0.22297896  0.19734408     0.26800
C362        C  0.26593659  0.24620815  0.19186432    -0.20400
C363        C  0.25851626  0.26645040  0.20068499    -0.10000
C364        C  0.24497237  0.26388890  0.21514042    -0.10600
C365        C  0.23834465  0.24066540  0.22026090    -0.03500
C366        C  0.24577160  0.22042026  0.21143386    -0.18600
H367        H  0.28505409  0.09844732  0.19076370     0.10500
H368        H  0.26873197  0.13414551  0.20387987     0.10600
H369        H  0.30198228  0.17873293  0.16685123     0.10200
H370        H  0.31811698  0.14293355  0.15356253     0.11300
H371        H  0.26892484  0.17766913  0.20790219     0.11400
H372        H  0.27424988  0.20482340  0.17530218     0.13300
H373        H  0.27674257  0.24868851  0.18094198     0.09800
H374        H  0.26380120  0.28409260  0.19633056     0.11900
H375        H  0.22763283  0.23808839  0.23120769     0.08500
H376        H  0.24009099  0.20287885  0.21568916     0.11300
C377        C  0.79096351  0.36629753  0.23814547    -0.03300
C378        C  0.81127149  0.35448704  0.24450628    -0.05900
C379        C  0.83381933  0.35773894  0.23730345    -0.21000
C380        C  0.83663218  0.37304909  0.22372627     0.24700
C381        C  0.81622473  0.38467201  0.21726704    -0.18600
C382        C  0.79371305  0.38139119  0.22444121    -0.08500
C383        C  0.86083778  0.37569893  0.21624157    -0.18800
C384        C  0.86704882  0.39467951  0.20687359    -0.23600
C385        C  0.89040113  0.39697396  0.19828844     0.26800
C386        C  0.89130581  0.41142844  0.18420142    -0.20400
C387        C  0.91273662  0.41452111  0.17566580    -0.10000
C388        C  0.93399081  0.40346074  0.18113134    -0.10600
C389        C  0.93320811  0.38908550  0.19534983    -0.03500
C390        C  0.91159782  0.38583195  0.20385912    -0.18600
H391        H  0.80974054  0.34259917  0.25500012     0.10500
H392        H  0.84914602  0.34834367  0.24240275     0.10600
H393        H  0.81729809  0.39589285  0.20644543     0.10200
H394        H  0.77841536  0.39061304  0.21916902     0.11300
H395        H  0.87375579  0.36144450  0.21848480     0.11400
H396        H  0.85420474  0.40903174  0.20479302     0.13300
H397        H  0.87527216  0.42027948  0.17969476     0.09800
H398        H  0.91259693  0.42578448  0.16480742     0.11900
H399        H  0.94927550  0.38041697  0.19993626     0.08500
H400        H  0.91171228  0.37503476  0.21491582     0.11300
C401        C  0.73543718  0.41865871  0.28359018    -0.03300
C402        C  0.73017796  0.44078085  0.27598949    -0.05900
C403        C  0.73525692  0.46247546  0.28389031    -0.21000
C404        C  0.74582744  0.46261316  0.29950980     0.24700
C405        C  0.75018657  0.44047104  0.30743147    -0.18600
C406        C  0.74516224  0.41873463  0.29949730    -0.08500
C407        C  0.75247518  0.48617923  0.30683404    -0.18800
C408        C  0.76976889  0.48866231  0.31824702    -0.23600
C409        C  0.77848361  0.51226252  0.32436210     0.26800
C410        C  0.79077761  0.51285825  0.33937093    -0.20400
C411        C  0.80095052  0.53421648  0.34508240    -0.10000
C412        C  0.79919179  0.55553660  0.33583930    -0.10600
C413        C  0.78661757  0.55505850  0.32088133    -0.03500
C414        C  0.77643924  0.53364426  0.31515456    -0.18600
H415        H  0.72256827  0.44138395  0.26376316     0.10500
H416        H  0.73150234  0.47923694  0.27757179     0.10600
H417        H  0.75743810  0.43973244  0.31972907     0.10200
H418        H  0.74909368  0.40199211  0.30577431     0.11300
H419        H  0.74367380  0.50205998  0.30192835     0.11400
H420        H  0.77858246  0.47281272  0.32317006     0.13300
H421        H  0.79274598  0.49663263  0.34664698     0.09800
H422        H  0.81043440  0.53390769  0.35668132     0.11900
H423        H  0.78508501  0.57110740  0.31339075     0.08500
H424        H  0.76777392  0.53384617  0.30328398     0.11300
C425        C  0.66083873  0.34637625  0.27911845    -0.03300
C426        C  0.63972937  0.35398023  0.27121622    -0.05900
C427        C  0.61723183  0.34857509  0.27789782    -0.21000
C428        C  0.61532027  0.33568170  0.29268101     0.24700
C429        C  0.63649284  0.32829803  0.30066520    -0.18600
C430        C  0.65893484  0.33366758  0.29398769    -0.08500
C431        C  0.59108496  0.32880489  0.29876150    -0.18800
C432        C  0.58658205  0.32273236  0.31449652    -0.23600
C433        C  0.56318817  0.31327705  0.32048498     0.26800
C434        C  0.56290922  0.30037539  0.33531002    -0.20400
C435        C  0.54162584  0.29050440  0.34134666    -0.10000
C436        C  0.51995103  0.29351675  0.33277862    -0.10600
C437        C  0.52009151  0.30681805  0.31806394    -0.03500
C438        C  0.54144447  0.31662346  0.31197903    -0.18600
H439        H  0.64055828  0.36373196  0.25971057     0.10500
H440        H  0.60124420  0.35428788  0.27141080     0.10600
H441        H  0.63596223  0.31762345  0.31176053     0.10200
H442        H  0.67481965  0.32739375  0.30034550     0.11300
H443        H  0.57678192  0.32823554  0.28975817     0.11400
H444        H  0.60094110  0.32371918  0.32344922     0.13300
H445        H  0.57933386  0.29762563  0.34217199     0.09800
H446        H  0.54220840  0.28050654  0.35276065     0.11900
H447        H  0.50369733  0.30963771  0.31119267     0.08500
H448        H  0.54065242  0.32698542  0.30075446     0.11300
C449        C  0.69945722  0.14498176  0.17982700    -0.03300
C450        C  0.70965593  0.14407831  0.19560087    -0.05900
C451        C  0.71510907  0.16525080  0.20404481    -0.21000
C452        C  0.71046694  0.18782924  0.19698618     0.24700
C453        C  0.70094535  0.18878519  0.18098181    -0.18600
C454        C  0.69539676  0.16757927  0.17254443    -0.08500
C455        C  0.71610069  0.20978186  0.20668656    -0.18800
C456        C  0.70552535  0.23129817  0.20412823    -0.23600
C457        C  0.71023443  0.25318162  0.21417472     0.26800
C458        C  0.70275650  0.27556493  0.20800326    -0.20400
C459        C  0.70615013  0.29661266  0.21707491    -0.10000
C460        C  0.71702058  0.29579055  0.23263668    -0.10600
C461        C  0.72444075  0.27341468  0.23889531    -0.03500
C462        C  0.72103234  0.25232316  0.22981532    -0.18600
H463        H  0.71308153  0.12699557  0.20158224     0.10500
H464        H  0.72263162  0.16397471  0.21627771     0.10600
H465        H  0.69794516  0.20577560  0.17482282     0.10200
H466        H  0.68793060  0.16890644  0.16030455     0.11300
H467        H  0.72891610  0.20767563  0.21658574     0.11400
H468        H  0.69258353  0.23317054  0.19426537     0.13300
H469        H  0.69423561  0.27679573  0.19607720     0.09800
H470        H  0.70014583  0.31353760  0.21188850     0.11900
H471        H  0.73271474  0.27214605  0.25089227     0.08500
H472        H  0.72645973  0.23548996  0.23533834     0.11300
C473        C  0.70112095  0.05645045  0.17656105    -0.03300
C474        C  0.69387227  0.03481409  0.16914637    -0.05900
C475        C  0.70061183  0.01264720  0.17583832    -0.21000
C476        C  0.71497352  0.01150537  0.18996144     0.24700
C477        C  0.72240794  0.03311140  0.19737430    -0.18600
C478        C  0.71557133  0.05532543  0.19072071    -0.08500
C479        C  0.72070817  0.98746453  0.19694826    -0.18800
C480        C  0.74009600  0.98287839  0.20634878    -0.23600
C481        C  0.74556067  0.95872105  0.21339309     0.26800
C482        C  0.76133350  0.95714977  0.22679777    -0.20400
C483        C  0.76638005  0.93491811  0.23412785    -0.10000
C484        C  0.75591228  0.91369180  0.22808879    -0.10600
C485        C  0.74074120  0.91514199  0.21435184    -0.03500
C486        C  0.73567796  0.93733527  0.20704398    -0.18600
H487        H  0.68275636  0.03494705  0.15824758     0.10500
H488        H  0.69453962  0.99626809  0.16994767     0.10600
H489        H  0.73291299  0.03300488  0.20853482     0.10200
H490        H  0.72137910  0.07161873  0.19682583     0.11300
H491        H  0.70835969  0.97306491  0.19396323     0.11400
H492        H  0.75236185  0.99740787  0.20929054     0.13300
H493        H  0.76945950  0.97325279  0.23181538     0.09800
H494        H  0.77828383  0.93440341  0.24462756     0.11900
H495        H  0.73252165  0.89911182  0.20930896     0.08500
H496        H  0.72419679  0.93743749  0.19636222     0.11300
C497        C  0.55006149  0.89075680  0.32186591    -0.03300
C498        C  0.54972197  0.87718871  0.30730097    -0.05900
C499        C  0.57092260  0.87260323  0.29871359    -0.21000
C500        C  0.59297450  0.88127707  0.30450673     0.24700
C501        C  0.59333399  0.89494371  0.31905771    -0.18600
C502        C  0.57213074  0.89951445  0.32765811    -0.08500
C503        C  0.61494680  0.87636505  0.29472190    -0.18800
C504        C  0.63726741  0.87707762  0.30104591    -0.23600
C505        C  0.65946166  0.87229646  0.29146665     0.26800
C506        C  0.68145473  0.87979015  0.29809342    -0.20400
C507        C  0.70295431  0.87522387  0.28988137    -0.10000
C508        C  0.70298519  0.86288850  0.27484286    -0.10600
C509        C  0.68099688  0.85535919  0.26815426    -0.03500
C510        C  0.65945398  0.85992861  0.27637849    -0.18600
H511        H  0.53305080  0.87019555  0.30243730     0.10500
H512        H  0.57009035  0.86218308  0.28749360     0.10600
H513        H  0.60975642  0.90269257  0.32370131     0.10200
H514        H  0.57303853  0.91019636  0.33875267     0.11300
H515        H  0.61235070  0.87177404  0.28191859     0.11400
H516        H  0.63968773  0.88146670  0.31390321     0.13300
H517        H  0.68202184  0.88925472  0.30970910     0.09800
H518        H  0.71956824  0.88130217  0.29537085     0.11900
H519        H  0.68042100  0.84573370  0.25660618     0.08500
H520        H  0.64306565  0.85323430  0.27098641     0.11300
C521        C  0.77311360  0.78664355  0.27457373    -0.03300
C522        C  0.76070800  0.76612761  0.26913042    -0.05900
C523        C  0.76415459  0.74386514  0.27680199    -0.21000
C524        C  0.78030600  0.74149589  0.28991551     0.24700
C525        C  0.79238774  0.76212675  0.29559285    -0.18600
C526        C  0.78881635  0.78443757  0.28798980    -0.08500
C527        C  0.78350805  0.71741938  0.29761708    -0.18800
C528        C  0.80356246  0.71084832  0.30571832    -0.23600
C529        C  0.80694222  0.68703238  0.31378710     0.26800
C530        C  0.82470292  0.68487833  0.32591118    -0.20400
C531        C  0.82852809  0.66301368  0.33399476    -0.10000
C532        C  0.81482313  0.64261633  0.33000788    -0.10600
C533        C  0.79731862  0.64460217  0.31764233    -0.03500
C534        C  0.79341541  0.66653248  0.30959771    -0.18600
H535        H  0.74832374  0.76724856  0.25891541     0.10500
H536        H  0.75439015  0.72834441  0.27232660     0.10600
H537        H  0.80432041  0.76127385  0.30604296     0.10200
H538        H  0.79850454  0.79993571  0.29256059     0.11300
H539        H  0.76885107  0.70475635  0.29628574     0.11400
H540        H  0.81820841  0.72359750  0.30682322     0.13300
H541        H  0.83554072  0.70028467  0.32928078     0.09800
H542        H  0.84228650  0.66212504  0.34336026     0.11900
H543        H  0.78653930  0.62921152  0.31417869     0.08500
H544        H  0.78006442  0.66711142  0.29998882     0.11300
C545        C  0.30509823  0.02981388  0.16800753    -0.03300
C546        C  0.28688129  0.02895677  0.17992196    -0.05900
C547        C  0.27960244  0.00705834  0.18659565    -0.21000
C548        C  0.29047257  0.98548997  0.18169340     0.24700
C549        C  0.30823836  0.98613261  0.16941754    -0.18600
C550        C  0.31546841  0.00812907  0.16263712    -0.08500
C551        C  0.28277285  0.96299852  0.18993578    -0.18800
C552        C  0.29643875  0.94309611  0.19106065    -0.23600
C553        C  0.28917210  0.92200223  0.20103385     0.26800
C554        C  0.29731589  0.89903737  0.19658686    -0.20400
C555        C  0.29098761  0.87887948  0.20590873    -0.10000
C556        C  0.27666784  0.88139984  0.22001403    -0.10600
C557        C  0.26889291  0.90446886  0.22462265    -0.03500
C558        C  0.27511932  0.92456308  0.21527293    -0.18600
H559        H  0.27830065  0.04525542  0.18424959     0.10500
H560        H  0.26574855  0.00703898  0.19592262     0.10600
H561        H  0.31652494  0.96980071  0.16494673     0.10200
H562        H  0.32936730  0.00815840  0.15335561     0.11300
H563        H  0.26552890  0.96341443  0.19612415     0.11400
H564        H  0.31353002  0.94211456  0.18473979     0.13300
H565        H  0.30843944  0.89668191  0.18580605     0.09800
H566        H  0.29743941  0.86135145  0.20211578     0.11900
H567        H  0.25807566  0.90705045  0.23551822     0.08500
H568        H  0.26931354  0.94210298  0.21946387     0.11300
C569        C  0.46216849  0.88436674  0.32590244    -0.03300
C570        C  0.44062666  0.88834954  0.33443494    -0.05900
C571        C  0.41879723  0.88048193  0.32795895    -0.21000
C572        C  0.41793731  0.86833622  0.31287328     0.24700
C573        C  0.43948905  0.86424067  0.30432689    -0.18600
C574        C  0.46134696  0.87211817  0.31080489    -0.08500
C575        C  0.39409113  0.86176727  0.30607048    -0.18800
C576        C  0.39061766  0.84473284  0.29452372    -0.23600
C577        C  0.36680253  0.83950760  0.28703522     0.26800
C578        C  0.36599494  0.82736384  0.27192454    -0.20400
C579        C  0.34408635  0.82312119  0.26404965    -0.10000
C580        C  0.32248153  0.83092477  0.27115950    -0.10600
C581        C  0.32320938  0.84237304  0.28651572    -0.03500
C582        C  0.34504276  0.84645295  0.29443075    -0.18600
H583        H  0.44055656  0.89769854  0.34609099     0.10500
H584        H  0.40245895  0.88402733  0.33473736     0.10600
H585        H  0.43959539  0.85563460  0.29243300     0.10200
H586        H  0.47756588  0.86890215  0.30383146     0.11300
H587        H  0.37894766  0.87184941  0.31076795     0.11400
H588        H  0.40584753  0.83467424  0.28988367     0.13300
H589        H  0.38241697  0.82157484  0.26601809     0.09800
H590        H  0.34412466  0.81416457  0.25224891     0.11900
H591        H  0.30685144  0.84826621  0.29245105     0.08500
H592        H  0.34456799  0.85493620  0.30634973     0.11300
C593        C  0.18555814  0.61882448  0.31796918    -0.03300
C594        C  0.19681556  0.61776057  0.30254370    -0.05900
C595        C  0.20430873  0.63874767  0.29466077    -0.21000
C596        C  0.20100093  0.66128647  0.30204129     0.24700
C597        C  0.18910772  0.66251442  0.31726457    -0.18600
C598        C  0.18147102  0.64146831  0.32513981    -0.08500
C599        C  0.21002487  0.68289603  0.29328805    -0.18800
C600        C  0.21536669  0.70384046  0.30073664    -0.23600
C601        C  0.22493935  0.72491412  0.29167112     0.26800
C602        C  0.22008319  0.74811392  0.29757571    -0.20400
C603        C  0.22810457  0.76839115  0.28902210    -0.10000
C604        C  0.24141197  0.76582214  0.27447426    -0.10600
C605        C  0.24706679  0.74256390  0.26891398    -0.03500
C606        C  0.23898690  0.72231790  0.27743613    -0.18600
H607        H  0.20006063  0.60066327  0.29656379     0.10500
H608        H  0.21314998  0.63731850  0.28285968     0.10600
H609        H  0.18545842  0.67960040  0.32310052     0.10200
H610        H  0.17265146  0.64293951  0.33693595     0.11300
H611        H  0.21295356  0.68112324  0.28017280     0.11400
H612        H  0.21226845  0.70598421  0.31379430     0.13300
H613        H  0.20958262  0.75055485  0.30863612     0.09800
H614        H  0.22357032  0.78606823  0.29368544     0.11900
H615        H  0.25753786  0.73996294  0.25786335     0.08500
H616        H  0.24393531  0.70471186  0.27288224     0.11300
C617        C  0.05197817  0.77598897  0.16909943    -0.03300
C618        C  0.07319298  0.76679455  0.16220376    -0.05900
C619        C  0.09539737  0.77135702  0.16949361    -0.21000
C620        C  0.09704616  0.78537757  0.18375943     0.24700
C621        C  0.07584858  0.79463631  0.19071709    -0.18600
C622        C  0.05357380  0.79001927  0.18343333    -0.08500
C623        C  0.12111021  0.78891856  0.19124629    -0.18800
C624        C  0.12667831  0.80719358  0.20142855    -0.23600
C625        C  0.15087054  0.81043554  0.20887296     0.26800
C626        C  0.15302192  0.82482082  0.22294824    -0.20400
C627        C  0.17528990  0.82805315  0.23053069    -0.10000
C628        C  0.19600458  0.81705745  0.22414090    -0.10600
C629        C  0.19399440  0.80313102  0.20982949    -0.03500
C630        C  0.17173710  0.79994198  0.20222273    -0.18600
H631        H  0.07269850  0.75590193  0.15119340     0.10500
H632        H  0.11140303  0.76389047  0.16393637     0.10600
H633        H  0.07622225  0.80493210  0.20196946     0.10200
H634        H  0.03758989  0.79723635  0.18915783     0.11300
H635        H  0.13473363  0.77585635  0.18798149     0.11400
H636        H  0.11299703  0.82020273  0.20472855     0.13300
H637        H  0.13734723  0.83333989  0.22823917     0.09800
H638        H  0.17620761  0.83900506  0.24150188     0.11900
H639        H  0.20963934  0.79464635  0.20448343     0.08500
H640        H  0.17118348  0.78949366  0.19105209     0.11300
C641        C  0.82742196  0.83718400  0.22771221    -0.03300
C642        C  0.84937338  0.84473176  0.23444812    -0.05900
C643        C  0.87104743  0.83871018  0.22685229    -0.21000
C644        C  0.87130536  0.82518076  0.21231015     0.24700
C645        C  0.84930069  0.81775203  0.20550810    -0.18600
C646        C  0.82763771  0.82378226  0.21309689    -0.08500
C647        C  0.89484441  0.81803421  0.20521480    -0.18800
C648        C  0.89781457  0.81119789  0.18947103    -0.23600
C649        C  0.92094392  0.80250038  0.18253814     0.26800
C650        C  0.92036079  0.78904387  0.16797474    -0.20400
C651        C  0.94147445  0.78004869  0.16107052    -0.10000
C652        C  0.96379431  0.78445953  0.16851265    -0.10600
C653        C  0.96447010  0.79833199  0.18293385    -0.03500
C654        C  0.94331963  0.80731079  0.18985965    -0.18600
H655        H  0.84985597  0.85502726  0.24572413     0.10500
H656        H  0.88770907  0.84450933  0.23242777     0.10600
H657        H  0.84860194  0.80663619  0.19463822     0.10200
H658        H  0.81105855  0.81750337  0.20766598     0.11300
H659        H  0.91008669  0.81823498  0.21347114     0.11400
H660        H  0.88252381  0.81123904  0.18124504     0.13300
H661        H  0.90343225  0.78521222  0.16199472     0.09800
H662        H  0.94024240  0.76957171  0.14990083     0.11900
H663        H  0.98135948  0.80227364  0.18891623     0.08500
H664        H  0.94476687  0.81822029  0.20078724     0.11300
C665        C  0.99113670  0.51466763  0.03067354    -0.03300
C666        C  0.00629673  0.49478992  0.03323047    -0.05900
C667        C  0.00601285  0.48240776  0.04812393    -0.21000
C668        C  0.99056577  0.48953770  0.06080072     0.24700
C669        C  0.97558687  0.50965724  0.05835804    -0.18600
C670        C  0.97581012  0.52200703  0.04340601    -0.08500
C671        C  0.99140342  0.47603984  0.07650683    -0.18800
C672        C  0.97380855  0.47657447  0.08781210    -0.23600
C673        C  0.97509244  0.46308127  0.10351346     0.26800
C674        C  0.95371417  0.45766240  0.11180131    -0.20400
C675        C  0.95417602  0.44502297  0.12663378    -0.10000
C676        C  0.97610630  0.43762896  0.13352332    -0.10600
C677        C  0.99753830  0.44343907  0.12536478    -0.03500
C678        C  0.99707309  0.45614255  0.11058831    -0.18600
H679        H  0.01867068  0.48900000  0.02377258     0.10500
H680        H  0.01795296  0.46718839  0.04975090     0.10600
H681        H  0.96395083  0.51623977  0.06797160     0.10200
H682        H  0.96387171  0.53721361  0.04178252     0.11300
H683        H  0.00680625  0.46442567  0.07842821     0.11400
H684        H  0.95734967  0.48631433  0.08527854     0.13300
H685        H  0.93657168  0.46305135  0.10671103     0.09800
H686        H  0.93733241  0.44095151  0.13263638     0.11900
H687        H  0.01476406  0.43832353  0.13043641     0.08500
H688        H  0.01401425  0.46078758  0.10496676     0.11300
C689        C  0.44618344  0.06900057  0.03186302    -0.03300
C690        C  0.42615350  0.05373909  0.03273390    -0.05900
C691        C  0.41219199  0.05274677  0.04696938    -0.21000
C692        C  0.41774561  0.06710976  0.06063310     0.24700
C693        C  0.43813733  0.08203249  0.05989355    -0.18600
C694        C  0.45215893  0.08295364  0.04565216    -0.08500
C695        C  0.40208971  0.06541680  0.07541278    -0.18800
C696        C  0.40156888  0.08181920  0.08761773    -0.23600
C697        C  0.38530377  0.07989113  0.10207050     0.26800
C698        C  0.37931869  0.10082797  0.11081725    -0.20400
C699        C  0.36369249  0.09980530  0.12425347    -0.10000
C700        C  0.35388434  0.07771782  0.12936194    -0.10600
C701        C  0.36044546  0.05666651  0.12089458    -0.03500
C702        C  0.37599575  0.05770424  0.10746206    -0.18600
H703        H  0.42127776  0.04254803  0.02237899     0.10500
H704        H  0.39680205  0.04085942  0.04723696     0.10600
H705        H  0.44353413  0.09290008  0.07024892     0.10200
H706        H  0.46743564  0.09497398  0.04530166     0.11300
H707        H  0.38961106  0.05044754  0.07576143     0.11400
H708        H  0.41242184  0.09795551  0.08669076     0.13300
H709        H  0.38648712  0.11811221  0.10709224     0.09800
H710        H  0.35924828  0.11634563  0.13058763     0.11900
H711        H  0.35347777  0.03929202  0.12457680     0.08500
H712        H  0.38084340  0.04100376  0.10151402     0.11300
C713        C  0.35846834  0.06980778  0.87187238    -0.03300
C714        C  0.36600214  0.04753592  0.87829765    -0.05900
C715        C  0.37934931  0.04645144  0.89281955    -0.21000
C716        C  0.38565737  0.06754031  0.90126094     0.24700
C717        C  0.37815418  0.08986728  0.89483937    -0.18600
C718        C  0.36481025  0.09095783  0.88029785    -0.08500
C719        C  0.39896977  0.06528577  0.91706154    -0.18800
C720        C  0.41105770  0.08348619  0.92423757    -0.23600
C721        C  0.42373423  0.08119158  0.94027226     0.26800
C722        C  0.44180398  0.09784085  0.94416860    -0.20400
C723        C  0.45388701  0.09661291  0.95920511    -0.10000
C724        C  0.44797915  0.07881993  0.97079042    -0.10600
C725        C  0.42967173  0.06235174  0.96701166    -0.03500
C726        C  0.41763864  0.06352310  0.95196225    -0.18600
H727        H  0.36146794  0.03085464  0.87218075     0.10500
H728        H  0.38470895  0.02899836  0.89751434     0.10600
H729        H  0.38196054  0.10654157  0.90113835     0.10200
H730        H  0.35921565  0.10842584  0.87578029     0.11300
H731        H  0.39932249  0.04758054  0.92269275     0.11400
H732        H  0.41258052  0.10062477  0.91793569     0.13300
H733        H  0.44665423  0.11183293  0.93551206     0.09800
H734        H  0.46765323  0.10978883  0.96185827     0.11900
H735        H  0.42477052  0.04839029  0.97567819     0.08500
H736        H  0.40333626  0.05081517  0.94973074     0.11300
C737        C  0.31531678  0.11690438  0.82932518    -0.03300
C738        C  0.30306489  0.11709557  0.81423604    -0.05900
C739        C  0.29539465  0.13864666  0.80723642    -0.21000
C740        C  0.29963507  0.16070620  0.81505750     0.24700
C741        C  0.31179669  0.16065133  0.83024850    -0.18600
C742        C  0.31956922  0.13892989  0.83728695    -0.08500
C743        C  0.29154056  0.18294908  0.80645119    -0.18800
C744        C  0.29203596  0.20537717  0.81275110    -0.23600
C745        C  0.28422439  0.22695568  0.80325702     0.26800
C746        C  0.29308968  0.24970014  0.80769011    -0.20400
C747        C  0.28670997  0.27027910  0.79873722    -0.10000
C748        C  0.27120307  0.26852627  0.78518297    -0.10600
C749        C  0.26183022  0.24586712  0.78102572    -0.03500
C750        C  0.26808063  0.22538200  0.79000181    -0.18600
H751        H  0.29943730  0.10054709  0.80768205     0.10500
H752        H  0.28612907  0.13803231  0.79554759     0.10600
H753        H  0.31570656  0.17716191  0.83669516     0.10200
H754        H  0.32893937  0.13940478  0.84892662     0.11300
H755        H  0.28523033  0.18049738  0.79397372     0.11400
H756        H  0.29910196  0.20841935  0.82496008     0.13300
H757        H  0.30530586  0.25149879  0.81795625     0.09800
H758        H  0.29413264  0.28749771  0.80232361     0.11900
H759        H  0.24954986  0.24391079  0.77081400     0.08500
H760        H  0.25991994  0.20847996  0.78655805     0.11300
C761        C  0.20185174  0.52943661  0.67466001    -0.03300
C762        C  0.21774776  0.53086114  0.68802156    -0.05900
C763        C  0.22642065  0.51000707  0.69553291    -0.21000
C764        C  0.21924981  0.48720714  0.69004514     0.24700
C765        C  0.20385525  0.48566159  0.67637757    -0.18600
C766        C  0.19525239  0.50658490  0.66877522    -0.08500
C767        C  0.22820608  0.46572855  0.69906369    -0.18800
C768        C  0.21680724  0.44435583  0.69932013    -0.23600
C769        C  0.22459232  0.42373504  0.70971208     0.26800
C770        C  0.21711693  0.40046218  0.70544092    -0.20400
C771        C  0.22324879  0.38068196  0.71521032    -0.10000
C772        C  0.23686056  0.38375829  0.72959259    -0.10600
C773        C  0.24421020  0.40707248  0.73395575    -0.03500
C774        C  0.23809409  0.42685581  0.72417496    -0.18600
H775        H  0.22339788  0.54812494  0.69281357     0.10500
H776        H  0.23841728  0.51172109  0.70593048     0.10600
H777        H  0.19850629  0.46842955  0.67142767     0.10200
H778        H  0.18322351  0.50483266  0.65840922     0.11300
H779        H  0.24423777  0.46816488  0.70641923     0.11400
H780        H  0.20088125  0.44175754  0.69188328     0.13300
H781        H  0.20648898  0.39756701  0.69448672     0.09800
H782        H  0.21721356  0.36297541  0.71150916     0.11900
H783        H  0.25451415  0.41009516  0.74502978     0.08500
H784        H  0.24348384  0.44454371  0.72827808     0.11300
C785        C  0.31490844  0.31683072  0.73184933    -0.03300
C786        C  0.33635908  0.32780760  0.73692188    -0.05900
C787        C  0.35776995  0.32351449  0.72850632    -0.21000
C788        C  0.35833964  0.30810995  0.71485928     0.24700
C789        C  0.33670661  0.29758487  0.70952001    -0.18600
C790        C  0.31528515  0.30186332  0.71796409    -0.08500
C791        C  0.38185125  0.30376478  0.70668555    -0.18800
C792        C  0.38596406  0.28608890  0.69571241    -0.23600
C793        C  0.40977655  0.28161909  0.68809915     0.26800
C794        C  0.41072254  0.26951632  0.67300959    -0.20400
C795        C  0.43273372  0.26423907  0.66564135    -0.10000
C796        C  0.45437918  0.27075692  0.67330048    -0.10600
C797        C  0.45344933  0.28282668  0.68844775    -0.03500
C798        C  0.43141996  0.28812681  0.69580566    -0.18600
H799        H  0.33669610  0.33955351  0.74752049     0.10500
H800        H  0.37405055  0.33204635  0.73283136     0.10600
H801        H  0.33596727  0.28616819  0.69881659     0.10200
H802        H  0.29901919  0.29331647  0.71364354     0.11300
H803        H  0.39647820  0.31560570  0.71011314     0.11400
H804        H  0.37150140  0.27436506  0.69189384     0.13300
H805        H  0.39433978  0.26412308  0.66688349     0.09800
H806        H  0.43274193  0.25486282  0.65399518     0.11900
H807        H  0.46975925  0.28790443  0.69477394     0.08500
H808        H  0.43153789  0.29673056  0.70770313     0.11300
C809        C  0.00211450  0.40724769  0.87842011    -0.03300
C810        C  0.02448273  0.41165301  0.88582579    -0.05900
C811        C  0.02617013  0.42604522  0.89982765    -0.21000
C812        C  0.00563395  0.43660707  0.90668497     0.24700
C813        C  0.98317350  0.43196142  0.89943562    -0.18600
C814        C  0.98146470  0.41749539  0.88543864    -0.08500
C815        C  0.00833964  0.45168890  0.92163927    -0.18800
C816        C  0.99234666  0.46865211  0.92611708    -0.23600
C817        C  0.99480739  0.48385044  0.94104464     0.26800
C818        C  0.98132202  0.50515910  0.94204842    -0.20400
C819        C  0.98215223  0.51951117  0.95611335    -0.10000
C820        C  0.99634826  0.51273125  0.96958577    -0.10600
C821        C  0.01005936  0.49153407  0.96856360    -0.03500
C822        C  0.00926702  0.47718706  0.95448672    -0.18600
H823        H  0.04077152  0.40394761  0.88083686     0.10500
H824        H  0.04364924  0.42909877  0.90525320     0.10600
H825        H  0.96679696  0.43906944  0.90465117     0.10200
H826        H  0.96393832  0.41434226  0.88013578     0.11300
H827        H  0.02470954  0.44941579  0.92867472     0.11400
H828        H  0.97711697  0.47235468  0.91820513     0.13300
H829        H  0.96987726  0.51061766  0.93195335     0.09800
H830        H  0.97109972  0.53553341  0.95665250     0.11900
H831        H  0.02121431  0.48589239  0.97875905     0.08500
H832        H  0.01947484  0.46063878  0.95445783     0.11300
C833        C  0.19342338  0.33626264  0.78385587    -0.03300
C834        C  0.19334956  0.35189060  0.79739731    -0.05900
C835        C  0.17218613  0.35637398  0.80603578    -0.21000
C836        C  0.15055591  0.34532987  0.80144509     0.24700
C837        C  0.15067703  0.32938265  0.78799567    -0.18600
C838        C  0.17189904  0.32490625  0.77933712    -0.08500
C839        C  0.12842109  0.35193379  0.81066019    -0.18800
C840        C  0.10708333  0.34069069  0.80920557    -0.23600
C841        C  0.08505198  0.34835032  0.81814544     0.26800
C842        C  0.06263017  0.34078138  0.81223465    -0.20400
C843        C  0.04142954  0.34784544  0.82005286    -0.10000
C844        C  0.04218251  0.36256213  0.83407113    -0.10600
C845        C  0.06463858  0.36971937  0.84020239    -0.03500
C846        C  0.08580955  0.36263497  0.83240891    -0.18600
H847        H  0.20960355  0.36094816  0.80122581     0.10500
H848        H  0.17270132  0.36875427  0.81629904     0.10600
H849        H  0.13451309  0.32068438  0.78376875     0.10200
H850        H  0.17135195  0.31278150  0.76894239     0.11300
H851        H  0.12995183  0.36723929  0.81882365     0.11400
H852        H  0.10518716  0.32566179  0.80085674     0.13300
H853        H  0.06148296  0.32956917  0.80138896     0.09800
H854        H  0.02446544  0.34184619  0.81505072     0.11900
H855        H  0.06593479  0.38085277  0.85106986     0.08500
H856        H  0.10260460  0.36818654  0.83782198     0.11300
C857        C  0.31677650  0.02905638  0.82593076    -0.03300
C858        C  0.30565507  0.03096761  0.81048136    -0.05900
C859        C  0.29845332  0.01047855  0.80196891    -0.21000
C860        C  0.30191321  0.98751049  0.80867854     0.24700
C861        C  0.31322785  0.98542492  0.82409560    -0.18600
C862        C  0.32058771  0.00603876  0.83263084    -0.08500
C863        C  0.29396904  0.96645834  0.79886015    -0.18800
C864        C  0.28950947  0.94452346  0.80518600    -0.23600
C865        C  0.28118778  0.92392502  0.79505660     0.26800
C866        C  0.28586222  0.90046635  0.80057006    -0.20400
C867        C  0.27862387  0.88057973  0.79133591    -0.10000
C868        C  0.26629706  0.88372689  0.77642497    -0.10600
C869        C  0.26107108  0.90720744  0.77108318    -0.03500
C870        C  0.26835606  0.92710615  0.78030971    -0.18600
H871        H  0.30252487  0.04835800  0.80485047     0.10500
H872        H  0.28996026  0.01262160  0.79009040     0.10600
H873        H  0.31684277  0.96802165  0.82951091     0.10200
H874        H  0.32920608  0.00394462  0.84446037     0.11300
H875        H  0.29133109  0.96948521  0.78582477     0.11400
H876        H  0.29238003  0.94120305  0.81815803     0.13300
H877        H  0.29546971  0.89751415  0.81195796     0.09800
H878        H  0.28285301  0.86272669  0.79584606     0.11900
H879        H  0.25143318  0.91024202  0.75972304     0.08500
H880        H  0.26357497  0.94485317  0.77592420     0.11300
C881        C  0.45324028  0.88380016  0.66932111    -0.03300
C882        C  0.43177580  0.89179247  0.66206363    -0.05900
C883        C  0.40959482  0.88576349  0.66893950    -0.21000
C884        C  0.40828360  0.87145936  0.68312992     0.24700
C885        C  0.42977061  0.86351954  0.69044286    -0.18600
C886        C  0.45194447  0.86956253  0.68358122    -0.08500
C887        C  0.38427539  0.86625050  0.69028080    -0.18800
C888        C  0.37994091  0.84803596  0.70082572    -0.23600
C889        C  0.35620720  0.84372633  0.70861417     0.26800
C890        C  0.35541351  0.83108975  0.72353534    -0.20400
C891        C  0.33359068  0.82704832  0.73151673    -0.10000
C892        C  0.31200472  0.83544871  0.72468161    -0.10600
C893        C  0.31270425  0.84762258  0.70954892    -0.03500
C894        C  0.33453420  0.85162832  0.70155014    -0.18600
H895        H  0.43206462  0.90286132  0.65111301     0.10500
H896        H  0.39336420  0.89231464  0.66313577     0.10600
H897        H  0.42972652  0.85315600  0.70167912     0.10200
H898        H  0.46809587  0.86323574  0.68958622     0.11300
H899        H  0.36974250  0.87815381  0.68671899     0.11400
H900        H  0.39442426  0.83611371  0.70442987     0.13300
H901        H  0.37180399  0.82463733  0.72917827     0.09800
H902        H  0.33368069  0.81757175  0.74314392     0.11900
H903        H  0.29635288  0.85404057  0.70384719     0.08500
H904        H  0.33422683  0.86065650  0.68978553     0.11300
C905        C  0.23338951  0.76849020  0.72088764    -0.03300
C906        C  0.21907528  0.77057915  0.70674101    -0.05900
C907        C  0.21243810  0.75007128  0.69786357    -0.21000
C908        C  0.21977927  0.72710191  0.70302052     0.24700
C909        C  0.23483921  0.72513812  0.71682924    -0.18600
C910        C  0.24143951  0.74556718  0.72568780    -0.08500
C911        C  0.21188712  0.70558041  0.69363236    -0.18800
C912        C  0.20967099  0.68373831  0.70066915    -0.23600
C913        C  0.20326610  0.66134448  0.69175475     0.26800
C914        C  0.20948030  0.63932401  0.69902168    -0.20400
C915        C  0.20413932  0.61761506  0.69129486    -0.10000
C916        C  0.19213865  0.61730265  0.67611849    -0.10600
C917        C  0.18549479  0.63934726  0.66890087    -0.03500
C918        C  0.19102312  0.66119715  0.67662725    -0.18600
H919        H  0.21272564  0.78801216  0.70264907     0.10500
H920        H  0.20115251  0.75210371  0.68712371     0.10600
H921        H  0.24181134  0.70790233  0.72078158     0.10200
H922        H  0.25280558  0.74334510  0.73636615     0.11300
H923        H  0.20769115  0.70800256  0.68073429     0.11400
H924        H  0.21343466  0.68180571  0.71367722     0.13300
H925        H  0.21877499  0.63889376  0.71070282     0.17000
H926        H  0.20943268  0.60103738  0.69729885     0.11900
H927        H  0.17611954  0.63973746  0.65726110     0.08500
H928        H  0.18537334  0.67777105  0.67082195     0.11300
C929        C  0.04364373  0.76855555  0.82600392    -0.03300
C930        C  0.06495997  0.75930824  0.83274588    -0.05900
C931        C  0.08720697  0.76539910  0.82602588    -0.21000
C932        C  0.08877980  0.78100307  0.81250073     0.24700
C933        C  0.06744619  0.79040674  0.80578983    -0.18600
C934        C  0.04517367  0.78428336  0.81250103    -0.08500
C935        C  0.11289196  0.78590909  0.80538721    -0.18800
C936        C  0.11782366  0.80447236  0.79525229    -0.23600
C937        C  0.14180744  0.80861274  0.78771292     0.26800
C938        C  0.14323543  0.82295498  0.77354811    -0.20400
C939        C  0.16526921  0.82706969  0.76585480    -0.10000
C940        C  0.18648034  0.81702226  0.77221422    -0.10600
C941        C  0.18517215  0.80306752  0.78658698    -0.03500
C942        C  0.16313058  0.79898843  0.79430550    -0.18600
H943        H  0.06450200  0.74713156  0.84313137     0.10500
H944        H  0.10329664  0.75777571  0.83139412     0.10600
H945        H  0.06765003  0.80195998  0.79511070     0.10200
H946        H  0.02912533  0.79168730  0.80695296     0.11300
H947        H  0.12703514  0.77338855  0.80865997     0.11400
H948        H  0.10370698  0.81697601  0.79189963     0.13300
H949        H  0.12717080  0.83076711  0.76827305     0.09800
H950        H  0.16562528  0.83796134  0.75482266     0.11900
H951        H  0.20120624  0.79527552  0.79190261     0.08500
H952        H  0.16307029  0.78855640  0.80551247     0.11300
C953        C  0.80705021  0.80062875  0.77133038    -0.03300
C954        C  0.80523349  0.78778923  0.78614908    -0.05900
C955        C  0.82563197  0.78326299  0.79565888    -0.21000
C956        C  0.84826718  0.79154743  0.79065139     0.24700
C957        C  0.85004884  0.80455299  0.77584887    -0.18600
C958        C  0.82965657  0.80910817  0.76636623    -0.08500
C959        C  0.86960609  0.78492906  0.80066481    -0.18800
C960        C  0.89105522  0.79596259  0.79946171    -0.23600
C961        C  0.91283037  0.78774658  0.80836680     0.26800
C962        C  0.93536621  0.79321927  0.80169192    -0.20400
C963        C  0.95637113  0.78528871  0.80932256    -0.10000
C964        C  0.95532371  0.77182598  0.82392861    -0.10600
C965        C  0.93275745  0.76679702  0.83083529    -0.03500
C966        C  0.91172768  0.77473759  0.82318478    -0.18600
H967        H  0.78807714  0.78104062  0.79034731     0.10500
H968        H  0.82374134  0.77307504  0.80693413     0.10600
H969        H  0.86712744  0.81067737  0.77119151     0.10200
H970        H  0.83170445  0.81896761  0.75497373     0.11300
H971        H  0.86751171  0.76990100  0.80905763     0.11400
H972        H  0.89330416  0.81096070  0.79108145     0.13300
H973        H  0.93672453  0.80335191  0.79035559     0.09800
H974        H  0.97342254  0.78958291  0.80367630     0.11900
H975        H  0.93129672  0.75674951  0.84219222     0.08500
H976        H  0.89475909  0.77086159  0.82903753     0.11300
C977        C  0.81164816  0.60224453  0.67381550    -0.03300
C978        C  0.79798555  0.60085257  0.68828609    -0.05900
C979        C  0.78983956  0.62178354  0.69602191    -0.21000
C980        C  0.79501384  0.64458949  0.68947230     0.24700
C981        C  0.80908581  0.64599253  0.67514263    -0.18600
C982        C  0.81719741  0.62507903  0.66740258    -0.08500
C983        C  0.78601760  0.66629376  0.69826837    -0.18800
C984        C  0.78506904  0.68847964  0.69157892    -0.23600
C985        C  0.77724866  0.71015537  0.70078783     0.26800
C986        C  0.78669442  0.73256455  0.69622449    -0.20400
C987        C  0.78020235  0.75343143  0.70466542    -0.10000
C988        C  0.76385112  0.75242422  0.71778531    -0.10600
C989        C  0.75394464  0.73004117  0.72214933    -0.03500
C990        C  0.76053165  0.70910016  0.71371466    -0.18600
H991        H  0.79345451  0.58358438  0.69362857     0.10500
H992        H  0.77928674  0.62013245  0.70712792     0.10600
H993        H  0.81430449  0.66307445  0.66990732     0.10200
H994        H  0.82787514  0.62686869  0.65636851     0.11300
H995        H  0.78009599  0.66378357  0.71084262     0.11400
H996        H  0.79108753  0.69137112  0.67909304     0.13300
H997        H  0.79946932  0.73387912  0.68624646     0.09800
H998        H  0.78819487  0.77035635  0.70096812     0.11900
H999        H  0.74114306  0.72868984  0.73209793     0.08500
H1000       H  0.75229123  0.69223123  0.71722741     0.11300
C1001       C  0.69000503  0.82853397  0.71638669    -0.03300
C1002       C  0.69192068  0.84342903  0.70248874    -0.05900
C1003       C  0.67139741  0.85136045  0.69422785    -0.21000
C1004       C  0.64843890  0.84481297  0.69969372     0.24700
C1005       C  0.64648609  0.82943432  0.71339916    -0.18600
C1006       C  0.66705139  0.82144888  0.72165815    -0.08500
C1007       C  0.62718802  0.85393350  0.69047718    -0.18800
C1008       C  0.60499835  0.85566184  0.69696805    -0.23600
C1009       C  0.58355873  0.86472132  0.68788554     0.26800
C1010       C  0.56077712  0.85985510  0.69440535    -0.20400
C1011       C  0.54002704  0.86790721  0.68649045    -0.10000
C1012       C  0.54146372  0.88124591  0.67182956    -0.10600
C1013       C  0.56426846  0.88644661  0.66537048    -0.03500
C1014       C  0.58508943  0.87834299  0.67330240    -0.18600
H1015       H  0.70930089  0.84925283  0.69808528     0.10500
H1016       H  0.67347016  0.86298569  0.68363377     0.10600
H1017       H  0.62921888  0.82325563  0.71771322     0.10200
H1018       H  0.66493593  0.80990317  0.73228219     0.11300
H1019       H  0.63030953  0.85976981  0.67796167     0.11400
H1020       H  0.60210927  0.84999542  0.70955964     0.13300
H1021       H  0.55898429  0.84959798  0.70566003     0.09800
H1022       H  0.52282124  0.86361375  0.69191576     0.11900
H1023       H  0.56607258  0.89682651  0.65417766     0.08500
H1024       H  0.60220245  0.88317742  0.66803581     0.11300
C1025       C  0.81407125  0.32067065  0.77744152    -0.03300
C1026       C  0.83564856  0.31000392  0.77228714    -0.05900
C1027       C  0.85695530  0.31413996  0.78084644    -0.21000
C1028       C  0.85731990  0.32912807  0.79470717     0.24700
C1029       C  0.83559523  0.33941820  0.80010266    -0.18600
C1030       C  0.81423930  0.33524849  0.79152913    -0.08500
C1031       C  0.88074015  0.33325221  0.80304431    -0.18800
C1032       C  0.88496766  0.35109031  0.81388107    -0.23600
C1033       C  0.90888791  0.35552338  0.82139889     0.26800
C1034       C  0.91013712  0.36811603  0.83630502    -0.20400
C1035       C  0.93231508  0.37339265  0.84349284    -0.10000
C1036       C  0.95380656  0.36634600  0.83583831    -0.10600
C1037       C  0.95254109  0.35377034  0.82088909    -0.03500
C1038       C  0.93039175  0.34851894  0.81371073    -0.18600
H1039       H  0.83615512  0.29855914  0.76153930     0.10500
H1040       H  0.87332222  0.30581153  0.77646831     0.10600
H1041       H  0.83477591  0.35051546  0.81096476     0.10200
H1042       H  0.79787515  0.34357297  0.79589830     0.11300
H1043       H  0.89525402  0.32117121  0.79976102     0.11400
H1044       H  0.87057847  0.36305256  0.81752805     0.13300
H1045       H  0.89387422  0.37390265  0.84241550     0.09800
H1046       H  0.93258596  0.38313516  0.85499782     0.11900
H1047       H  0.96870089  0.34826132  0.81454868     0.08500
H1048       H  0.93033858  0.33955734  0.80193622     0.11300
C1049       C  0.76799725  0.37190022  0.72627570    -0.03300
C1050       C  0.75874322  0.39384332  0.73204076    -0.05900
C1051       C  0.76373784  0.41533510  0.72388877    -0.21000
C1052       C  0.77819798  0.41559137  0.70980280     0.24700
C1053       C  0.78735177  0.39358403  0.70387208    -0.18600
C1054       C  0.78229568  0.37196615  0.71206183    -0.08500
C1055       C  0.78286792  0.43929104  0.70188647    -0.18800
C1056       C  0.79977087  0.44342377  0.69040717    -0.23600
C1057       C  0.80453851  0.46780823  0.68357449     0.26800
C1058       C  0.81504416  0.46986039  0.66798767    -0.20400
C1059       C  0.82026501  0.49249084  0.66133248    -0.10000
C1060       C  0.81523142  0.51361423  0.67020279    -0.10600
C1061       C  0.80486762  0.51153741  0.68586560    -0.03500
C1062       C  0.79971664  0.48894119  0.69252185    -0.18600
H1063       H  0.74762137  0.39448993  0.74292819     0.10500
H1064       H  0.75636808  0.43193153  0.72872727     0.10600
H1065       H  0.79817616  0.39276936  0.69289148     0.10200
H1066       H  0.78959191  0.35532406  0.70726663     0.11300
H1067       H  0.77187453  0.45421769  0.70603779     0.11400
H1068       H  0.81049258  0.42870383  0.68568177     0.13300
H1069       H  0.81915468  0.45388327  0.66090496     0.09800
H1070       H  0.82828874  0.49340093  0.64924639     0.11900
H1071       H  0.80103216  0.52738373  0.69314356     0.08500
H1072       H  0.79251698  0.48819811  0.70483333     0.11300
C1073       C  0.69336486  0.30128112  0.72458966    -0.03300
C1074       C  0.69441265  0.28988106  0.70921319    -0.05900
C1075       C  0.67351617  0.28590050  0.70013984    -0.21000
C1076       C  0.65106576  0.29300193  0.70624644     0.24700
C1077       C  0.65006964  0.30492708  0.72149330    -0.18600
C1078       C  0.67098864  0.30894083  0.73055663    -0.08500
C1079       C  0.62934744  0.28786393  0.69621190    -0.18800
C1080       C  0.60689846  0.28757986  0.70232508    -0.23600
C1081       C  0.58525454  0.28204193  0.69238559     0.26800
C1082       C  0.56297674  0.29045644  0.69793479    -0.20400
C1083       C  0.54196091  0.28502477  0.68940457    -0.10000
C1084       C  0.54267216  0.27080476  0.67514238    -0.10600
C1085       C  0.56500096  0.26237412  0.66952921    -0.03500
C1086       C  0.58608230  0.26785519  0.67807906    -0.18600
H1087       H  0.71139221  0.28393707  0.70418463     0.10500
H1088       H  0.67487656  0.27693645  0.68837123     0.10600
H1089       H  0.63334623  0.31151233  0.72646029     0.10200
H1090       H  0.66959538  0.31798347  0.74229140     0.11300
H1091       H  0.63218010  0.28375153  0.68334088     0.11400
H1092       H  0.60389238  0.29174591  0.71515366     0.13300
H1093       H  0.56181329  0.30129085  0.70895866     0.09800
H1094       H  0.52511537  0.29185243  0.69410873     0.11900
H1095       H  0.56618220  0.25118956  0.65867838     0.08500
H1096       H  0.60279393  0.26039131  0.67366814     0.11300
C1097       C  0.70471109  0.10189387  0.82771276    -0.03300
C1098       C  0.71873662  0.10042525  0.81339681    -0.05900
C1099       C  0.72790810  0.12122564  0.80607681    -0.21000
C1100       C  0.72310675  0.14396545  0.81277684     0.24700
C1101       C  0.70991542  0.14542015  0.82747153    -0.18600
C1102       C  0.70077318  0.12460727  0.83482504    -0.08500
C1103       C  0.73194448  0.16564785  0.80397980    -0.18800
C1104       C  0.72091618  0.18720093  0.80487446    -0.23600
C1105       C  0.72813524  0.20876831  0.79523767     0.26800
C1106       C  0.71918571  0.23127948  0.80008478    -0.20400
C1107       C  0.72454653  0.25201081  0.79110740    -0.10000
C1108       C  0.73890769  0.25071510  0.77695810    -0.10600
C1109       C  0.74787152  0.22820602  0.77204227    -0.03500
C1110       C  0.74251774  0.20743047  0.78104451    -0.18600
H1111       H  0.72232683  0.08322937  0.80764306     0.10500
H1112       H  0.73825755  0.11959154  0.79488121     0.10600
H1113       H  0.70663353  0.16254166  0.83337651     0.10200
H1114       H  0.69036030  0.12638313  0.84597336     0.11300
H1115       H  0.74724122  0.16324437  0.79594332     0.11400
H1116       H  0.70545274  0.18924621  0.81283450     0.13300
H1117       H  0.70791851  0.23284214  0.81086513     0.09800
H1118       H  0.71728444  0.26905362  0.79522836     0.11900
H1119       H  0.75887208  0.22659066  0.76114894     0.08500
H1120       H  0.74925227  0.19043296  0.77653452     0.11300
C1121       C  0.68987491  0.01459773  0.82533608    -0.03300
C1122       C  0.67848976  0.99369972  0.83119688    -0.05900
C1123       C  0.68244968  0.97146900  0.82362362    -0.21000
C1124       C  0.69803188  0.96957941  0.81017003     0.24700
C1125       C  0.70908121  0.99055327  0.80410887    -0.18600
C1126       C  0.70511025  0.01275443  0.81164821    -0.08500
C1127       C  0.70176637  0.94567115  0.80243399    -0.18800
C1128       C  0.72186107  0.93998943  0.79411502    -0.23600
C1129       C  0.72592979  0.91667597  0.78564058     0.26800
C1130       C  0.74401791  0.91562742  0.77369820    -0.20400
C1131       C  0.74862871  0.89431866  0.76523368    -0.10000
C1132       C  0.73540560  0.87339641  0.76864401    -0.10600
C1133       C  0.71751743  0.87423058  0.78077647    -0.03500
C1134       C  0.71278885  0.89565394  0.78920792    -0.18600
H1135       H  0.66652728  0.99447063  0.84165093     0.10500
H1136       H  0.67349767  0.95563552  0.82839779     0.10600
H1137       H  0.72046066  0.99006297  0.79336872     0.10200
H1138       H  0.71397805  0.02849773  0.80667938     0.11300
H1139       H  0.68755139  0.93252933  0.80384469     0.11400
H1140       H  0.73608370  0.95323532  0.79311162     0.13300
H1141       H  0.75452661  0.93146693  0.77077916     0.09800
H1142       H  0.76264577  0.89424650  0.75603024     0.11900
H1143       H  0.70709011  0.85835364  0.78370792     0.08500
H1144       H  0.69912007  0.89543487  0.79860876     0.11300
C1145       C  0.07652252  0.56116133  0.52987953    -0.03300
C1146       C  0.10036293  0.56960071  0.53059561    -0.05900
C1147       C  0.11374170  0.56778076  0.54501302    -0.21000
C1148       C  0.10340199  0.55842719  0.55928335     0.24700
C1149       C  0.07972354  0.54989950  0.55879279    -0.18600
C1150       C  0.06651515  0.55093244  0.54417756    -0.08500
C1151       C  0.11783328  0.55763009  0.57447832    -0.18800
C1152       C  0.10919342  0.56533536  0.58894693    -0.23600
C1153       C  0.12442958  0.56660280  0.60381904     0.26800
C1154       C  0.12165202  0.58589195  0.61475808    -0.20400
C1155       C  0.13620900  0.58767343  0.62870533    -0.10000
C1156       C  0.15334487  0.56979722  0.63217151    -0.10600
C1157       C  0.15573910  0.55023649  0.62136626    -0.03500
C1158       C  0.14155155  0.54873176  0.60727447    -0.18600
H1159       H  0.10867739  0.57824385  0.52014056     0.10500
H1160       H  0.13199151  0.57446132  0.54517634     0.10600
H1161       H  0.07158437  0.54214136  0.56964735     0.10200
H1162       H  0.04854974  0.54361608  0.54415791     0.11300
H1163       H  0.13668265  0.55290668  0.57339709     0.11400
H1164       H  0.09112670  0.57264796  0.58955828     0.13300
H1165       H  0.10846000  0.59979163  0.61235816     0.09800
H1166       H  0.13382882  0.60283883  0.63688838     0.11900
H1167       H  0.16875978  0.53616772  0.62372432     0.08500
H1168       H  0.14374775  0.53340720  0.59920932     0.11300
C1169       C  0.07477513  0.57211137  0.46883752    -0.03300
C1170       C  0.09902295  0.57919488  0.46833853    -0.05900
C1171       C  0.11179261  0.57893275  0.45359824    -0.21000
C1172       C  0.10047672  0.57238681  0.43892879     0.24700
C1173       C  0.07616324  0.56577284  0.43923311    -0.18600
C1174       C  0.06349161  0.56547104  0.45405417    -0.08500
C1175       C  0.11472207  0.57159729  0.42361786    -0.18800
C1176       C  0.10571941  0.57830560  0.40900483    -0.23600
C1177       C  0.12024322  0.57776671  0.39379188     0.26800
C1178       C  0.11693987  0.59573336  0.38189137    -0.20400
C1179       C  0.13035652  0.59548844  0.36738203    -0.10000
C1180       C  0.14679575  0.57683186  0.36432912    -0.10600
C1181       C  0.14979575  0.55863057  0.37614053    -0.03500
C1182       C  0.13679184  0.55918356  0.39079244    -0.18600
H1183       H  0.10822704  0.58498292  0.47934341     0.10500
H1184       H  0.13052729  0.58410251  0.45361753     0.10600
H1185       H  0.06715779  0.56011391  0.42811439     0.10200
H1186       H  0.04503749  0.55942843  0.45396036     0.11300
H1187       H  0.13355103  0.56671233  0.42457628     0.11400
H1188       H  0.08767684  0.58565730  0.40832829     0.13300
H1189       H  0.10414290  0.61011371  0.38391814     0.09800
H1190       H  0.12757073  0.60964782  0.35842758     0.11900
H1191       H  0.16235319  0.54404700  0.37410595     0.08500
H1192       H  0.13933684  0.54480946  0.39961431     0.11300
C1193       C  0.50000349  0.23110250  0.62929019    -0.03300
C1194       C  0.47827198  0.22379164  0.62210540    -0.05900
C1195       C  0.47816480  0.21071038  0.60751832    -0.21000
C1196       C  0.49970936  0.20445171  0.59974583     0.24700
C1197       C  0.52155000  0.21169793  0.60687556    -0.18600
C1198       C  0.52166980  0.22484668  0.62153574    -0.08500
C1199       C  0.49829226  0.19157784  0.58382581    -0.18800
C1200       C  0.51652168  0.17923422  0.57698829    -0.23600
C1201       C  0.51417542  0.16718833  0.56079972     0.26800
C1202       C  0.52840932  0.14699560  0.55727197    -0.20400
C1203       C  0.52633005  0.13521745  0.54215742    -0.10000
C1204       C  0.51008034  0.14357093  0.53022137    -0.10600
C1205       C  0.49618677  0.16405498  0.53368222    -0.03500
C1206       C  0.49832532  0.17583362  0.54870977    -0.18600
H1207       H  0.46121979  0.22824166  0.62769642     0.10500
H1208       H  0.46109175  0.20551399  0.60224363     0.10600
H1209       H  0.53853111  0.20779919  0.60103851     0.10200
H1210       H  0.53871973  0.23031650  0.62668566     0.11300
H1211       H  0.48096811  0.19168092  0.57773273     0.11400
H1212       H  0.53323726  0.17693345  0.58363448     0.13300
H1213       H  0.54099330  0.14019042  0.56629109     0.09800
H1214       H  0.53759863  0.11972838  0.53975952     0.11900
H1215       H  0.48338910  0.17087378  0.52481623     0.08500
H1216       H  0.48768105  0.19185769  0.55069884     0.11300
C1217       C  0.47787316  0.24199857  0.37297464    -0.03300
C1218       C  0.45670040  0.23150662  0.37905110    -0.05900
C1219       C  0.45732333  0.21621193  0.39270921    -0.21000
C1220       C  0.47904997  0.21107354  0.40071299     0.24700
C1221       C  0.50031447  0.22132222  0.39448915    -0.18600
C1222       C  0.49968238  0.23666392  0.38085834    -0.08500
C1223       C  0.47874349  0.19453531  0.41517908    -0.18800
C1224       C  0.49668093  0.19318721  0.42626288    -0.23600
C1225       C  0.49674761  0.17714820  0.44097003     0.26800
C1226       C  0.51412266  0.18135007  0.45309596    -0.20400
C1227       C  0.51535288  0.16693003  0.46710433    -0.10000
C1228       C  0.49923626  0.14778964  0.46941147    -0.10600
C1229       C  0.48200853  0.14321847  0.45720692    -0.03500
C1230       C  0.48074746  0.15772466  0.44311205    -0.18600
H1231       H  0.43957244  0.23507626  0.37326177     0.10500
H1232       H  0.44069764  0.20844642  0.39709263     0.10600
H1233       H  0.51760530  0.21730948  0.39982794     0.10200
H1234       H  0.51638155  0.24421236  0.37644085     0.11300
H1235       H  0.46264958  0.18394340  0.41700709     0.11400
H1236       H  0.51190733  0.20516198  0.42501109     0.13300
H1237       H  0.52685865  0.19594148  0.45175521     0.09800
H1238       H  0.52914700  0.17065365  0.47611290     0.11900
H1239       H  0.46932659  0.12861317  0.45865441     0.08500
H1240       H  0.46741637  0.15339881  0.43395806     0.11300
C1241       C  0.49456015  0.01362798  0.52720747    -0.03300
C1242       C  0.48170329  0.99186153  0.52702411    -0.05900
C1243       C  0.47916977  0.97817379  0.54136842    -0.21000
C1244       C  0.48973192  0.98570583  0.55614663     0.24700
C1245       C  0.50201734  0.00782272  0.55644531    -0.18600
C1246       C  0.50440475  0.02158325  0.54214105    -0.08500
C1247       C  0.48735185  0.97025314  0.57101632    -0.18800
C1248       C  0.50372212  0.96996260  0.58322726    -0.23600
C1249       C  0.50213702  0.95412628  0.59797474     0.26800
C1250       C  0.52313371  0.94923745  0.60692634    -0.20400
C1251       C  0.52245910  0.93486646  0.62105104    -0.10000
C1252       C  0.50065207  0.92524912  0.62669748    -0.10600
C1253       C  0.47958060  0.93028470  0.61779452    -0.03500
C1254       C  0.48028255  0.94454817  0.60362536    -0.18600
H1255       H  0.47357838  0.98542855  0.51578178     0.10500
H1256       H  0.46930694  0.96139770  0.54084680     0.10600
H1257       H  0.50972161  0.01463885  0.56770448     0.10200
H1258       H  0.51445244  0.03824264  0.54269359     0.11300
H1259       H  0.47247115  0.95768948  0.57131090     0.11400
H1260       H  0.51972988  0.98093945  0.58204771     0.13300
H1261       H  0.54018549  0.95653087  0.60294768     0.09800
H1262       H  0.53901224  0.93150177  0.62762211     0.11900
H1263       H  0.46242776  0.92329191  0.62180167     0.08500
H1264       H  0.46358528  0.94839563  0.59739529     0.11300
C1265       C  0.50727304  0.92944512  0.36792217    -0.03300
C1266       C  0.48570713  0.93805125  0.37464714    -0.05900
C1267       C  0.48583325  0.95216522  0.38881257    -0.21000
C1268       C  0.50743512  0.95790510  0.39673875     0.24700
C1269       C  0.52910628  0.94935360  0.39003229    -0.18600
C1270       C  0.52898931  0.93527327  0.37577307    -0.08500
C1271       C  0.50630068  0.97342705  0.41159452    -0.18800
C1272       C  0.52416595  0.97591814  0.42262042    -0.23600
C1273       C  0.52141594  0.99076598  0.43768783     0.26800
C1274       C  0.53405632  0.98431416  0.45194293    -0.20400
C1275       C  0.53051843  0.99693052  0.46661353    -0.10000
C1276       C  0.51459700  0.01653452  0.46720324    -0.10600
C1277       C  0.50283534  0.02370128  0.45275487    -0.03500
C1278       C  0.50621604  0.01100172  0.43814960    -0.18600
H1279       H  0.46865554  0.93407209  0.36890052     0.10500
H1280       H  0.46889024  0.95861837  0.39361773     0.10600
H1281       H  0.54619979  0.95378061  0.39549935     0.10200
H1282       H  0.54594285  0.92900367  0.37088978     0.11300
H1283       H  0.48928704  0.98228587  0.41395604     0.11400
H1284       H  0.54052487  0.96552738  0.42132719     0.13300
H1285       H  0.54615859  0.96905505  0.45184403     0.09800
H1286       H  0.54011716  0.99129997  0.47752640     0.11900
H1287       H  0.49052744  0.03879731  0.45285673     0.08500
H1288       H  0.49685528  0.01708529  0.42726972     0.11300
C1289       C  0.94719616  0.58287710  0.53277624    -0.03300
C1290       C  0.95840377  0.57442965  0.54721238    -0.05900
C1291       C  0.94654246  0.57518030  0.56230030    -0.21000
C1292       C  0.92288674  0.58341399  0.56325826     0.24700
C1293       C  0.91147501  0.59189765  0.54904477    -0.18600
C1294       C  0.92362708  0.59201466  0.53401008    -0.08500
C1295       C  0.91037103  0.58291481  0.57921168    -0.18800
C1296       C  0.88952583  0.57112530  0.58110535    -0.23600
C1297       C  0.87753628  0.56869174  0.59724980     0.26800
C1298       C  0.86511341  0.54741621  0.60095313    -0.20400
C1299       C  0.85323473  0.54483832  0.61597489    -0.10000
C1300       C  0.85304780  0.56377866  0.62739551    -0.10600
C1301       C  0.86542056  0.58513052  0.62362936    -0.03500
C1302       C  0.87767681  0.58751260  0.60875364    -0.18600
H1303       H  0.97617098  0.56661077  0.54690588     0.10500
H1304       H  0.95556895  0.56850667  0.57317658     0.10600
H1305       H  0.89327666  0.59869459  0.54963622     0.10200
H1306       H  0.91445423  0.59934346  0.52342332     0.11300
H1307       H  0.91959705  0.59022376  0.58983809     0.11400
H1308       H  0.88188946  0.56160950  0.57068861     0.13300
H1309       H  0.86471515  0.53272301  0.59223004     0.09800
H1310       H  0.84376227  0.52821976  0.61849014     0.11900
H1311       H  0.86562347  0.60003415  0.63218449     0.08500
H1312       H  0.88675408  0.60429764  0.60609969     0.11300
C1313       C  0.94436884  0.57452250  0.47136245    -0.03300
C1314       C  0.94917825  0.55737853  0.45912678    -0.05900
C1315       C  0.93639293  0.55767589  0.44434374    -0.21000
C1316       C  0.91888672  0.57533937  0.44138360     0.24700
C1317       C  0.91387722  0.59231509  0.45371752    -0.18600
C1318       C  0.92648861  0.59188245  0.46853389    -0.08500
C1319       C  0.90547565  0.57500136  0.42563506    -0.18800
C1320       C  0.89598084  0.59495446  0.41880002    -0.23600
C1321       C  0.88167424  0.59474991  0.40341085     0.26800
C1322       C  0.87973833  0.61603743  0.39420382    -0.20400
C1323       C  0.86547922  0.61689383  0.38008665    -0.10000
C1324       C  0.85264850  0.59647147  0.37493784    -0.10600
C1325       C  0.85463401  0.57513309  0.38415926    -0.03500
C1326       C  0.86890007  0.57428417  0.39825460    -0.18600
H1327       H  0.96268525  0.54364039  0.46105017     0.10500
H1328       H  0.94034688  0.54421286  0.43511954     0.10600
H1329       H  0.89999515  0.60573048  0.45208499     0.10200
H1330       H  0.92249680  0.60537979  0.47772505     0.11300
H1331       H  0.90425913  0.55792464  0.41923067     0.11400
H1332       H  0.89935857  0.61234442  0.42441455     0.13300
H1333       H  0.88924610  0.63210563  0.39798194     0.09800
H1334       H  0.86438834  0.63362662  0.37329174     0.11900
H1335       H  0.84485560  0.55910602  0.38065193     0.08500
H1336       H  0.86929887  0.55776227  0.40528743     0.11300
C1337       C  0.65309399  0.06317751  0.86918452    -0.03300
C1338       C  0.63467741  0.04635260  0.87184347    -0.05900
C1339       C  0.62031084  0.04776132  0.88587580    -0.21000
C1340       C  0.62458268  0.06552099  0.89772487     0.24700
C1341       C  0.64284816  0.08248541  0.89503978    -0.18600
C1342       C  0.65682855  0.08146206  0.88081077    -0.08500
C1343       C  0.60955586  0.06628812  0.91268303    -0.18800
C1344       C  0.61900149  0.07049066  0.92759382    -0.23600
C1345       C  0.60431815  0.07090466  0.94274253     0.26800
C1346       C  0.61422830  0.06240686  0.95746683    -0.20400
C1347       C  0.60108281  0.06338896  0.97207231    -0.10000
C1348       C  0.57790711  0.07347647  0.97233315    -0.10600
C1349       C  0.56807748  0.08205146  0.95750738    -0.03500
C1350       C  0.58106986  0.08065800  0.94286370    -0.18600
H1351       H  0.63125048  0.03221563  0.86300711     0.10500
H1352       H  0.60616631  0.03466292  0.88766030     0.10600
H1353       H  0.64614649  0.09667281  0.90386707     0.10200
H1354       H  0.67084225  0.09470072  0.87905251     0.11300
H1355       H  0.59069197  0.06171825  0.91155082     0.11400
H1356       H  0.63830520  0.07245875  0.92884458     0.13300
H1357       H  0.63214648  0.05484008  0.95763931     0.09800
H1358       H  0.60910882  0.05622767  0.98314890     0.11900
H1359       H  0.55054604  0.09045640  0.95726693     0.08500
H1360       H  0.57321360  0.08791184  0.93175365     0.11300
C1361       C  0.57679797  0.08687558  0.03324844    -0.03300
C1362       C  0.59691278  0.07230956  0.03638845    -0.05900
C1363       C  0.60871915  0.07336540  0.05147771    -0.21000
C1364       C  0.60092536  0.08911592  0.06382331     0.24700
C1365       C  0.58098914  0.10403468  0.06067609    -0.18600
C1366       C  0.56904523  0.10288627  0.04553117    -0.08500
C1367       C  0.61348131  0.08834883  0.07994509    -0.18800
C1368       C  0.61324027  0.10628961  0.09106276    -0.23600
C1369       C  0.62720330  0.10499391  0.10662493     0.26800
C1370       C  0.63623161  0.12626555  0.11352916    -0.20400
C1371       C  0.65040518  0.12552348  0.12771156    -0.10000
C1372       C  0.65569863  0.10345149  0.13540705    -0.10600
C1373       C  0.64590932  0.08223142  0.12880997    -0.03500
C1374       C  0.63176108  0.08298972  0.11463263    -0.18600
H1375       H  0.60314027  0.05950188  0.02732196     0.10500
H1376       H  0.62391643  0.06158456  0.05357562     0.10600
H1377       H  0.57414493  0.11610377  0.06997184     0.10200
H1378       H  0.55367826  0.11443408  0.04346066     0.11300
H1379       H  0.62455769  0.07263566  0.08233256     0.11400
H1380       H  0.60414387  0.12306440  0.08821957     0.13300
H1381       H  0.63277341  0.14346769  0.10771078     0.09800
H1382       H  0.65748890  0.14225045  0.13250016     0.11900
H1383       H  0.64921004  0.06496517  0.13457155     0.08500
H1384       H  0.62434728  0.06631307  0.11002378     0.11300
C1385       C  0.98344922  0.64319479  0.96807426    -0.03300
C1386       C  0.97156669  0.66554392  0.96753417    -0.05900
C1387       C  0.96890593  0.67788606  0.95265135    -0.21000
C1388       C  0.97826492  0.66826944  0.93807708     0.24700
C1389       C  0.98931492  0.64552698  0.93850559    -0.18600
C1390       C  0.99199214  0.63322538  0.95333065    -0.08500
C1391       C  0.97665835  0.68240314  0.92264685    -0.18800
C1392       C  0.99378284  0.68121499  0.91102008    -0.23600
C1393       C  0.99383113  0.69628310  0.89599747     0.26800
C1394       C  0.01591921  0.70192272  0.88873464    -0.20400
C1395       C  0.01692980  0.71616360  0.87462676    -0.10000
C1396       C  0.99578291  0.72487166  0.86731872    -0.10600
C1397       C  0.97356932  0.71872842  0.87438288    -0.03500
C1398       C  0.97258686  0.70458876  0.88859808    -0.18600
H1399       H  0.96437352  0.67352380  0.97860830     0.10500
H1400       H  0.96004875  0.69525219  0.95258385     0.10600
H1401       H  0.99604488  0.63722259  0.92741184     0.10200
H1402       H  0.00135897  0.61613985  0.95328034     0.11300
H1403       H  0.96220201  0.69540466  0.92147907     0.11400
H1404       H  0.00946915  0.67002197  0.91313010     0.13300
H1405       H  0.03251604  0.69554321  0.89413279     0.09800
H1406       H  0.03433998  0.72039405  0.86949931     0.11900
H1407       H  0.95691435  0.72491473  0.86898532     0.08500
H1408       H  0.95522382  0.69996234  0.89361917     0.11300
C1409       C  0.00407919  0.73521373  0.12641034    -0.03300
C1410       C  0.98170785  0.72744143  0.12047463    -0.05900
C1411       C  0.98026825  0.71262189  0.10666690    -0.21000
C1412       C  0.00107066  0.70543605  0.09830902     0.24700
C1413       C  0.02352425  0.71295935  0.10430351    -0.18600
C1414       C  0.02498931  0.72768451  0.11820890    -0.08500
C1415       C  0.99851446  0.68955391  0.08373642    -0.18800
C1416       C  0.01486484  0.68812286  0.07158932    -0.23600
C1417       C  0.01136639  0.67290104  0.05677088     0.26800
C1418       C  0.02249856  0.67958999  0.04199709    -0.20400
C1419       C  0.01899864  0.66607802  0.02770449    -0.10000
C1420       C  0.00456086  0.64535094  0.02796893    -0.10600
C1421       C  0.99402916  0.63823931  0.04287459    -0.03500
C1422       C  0.99739769  0.65181505  0.05712157    -0.18600
H1423       H  0.96523369  0.73271043  0.12652685     0.10500
H1424       H  0.96276874  0.70690128  0.10241061     0.10600
H1425       H  0.04000208  0.70721768  0.09849384     0.10200
H1426       H  0.04252715  0.73317444  0.12251131     0.11300
H1427       H  0.98174157  0.67980094  0.08254034     0.11400
H1428       H  0.03058321  0.69962485  0.07190803     0.13300
H1429       H  0.03359581  0.69557154  0.04144453     0.09800
H1430       H  0.02761471  0.67180484  0.01644974     0.11900
H1431       H  0.98275965  0.62238424  0.04344490     0.08500
H1432       H  0.98915912  0.64562433  0.06837882     0.11300
loop_ 
_geom_bond_atom_site_label_1 
_geom_bond_atom_site_label_2 
_geom_bond_distance 
_geom_bond_site_symmetry_2 
_ccdc_geom_bond_type 
C1            C2   1.406       .  A
C1            C6   1.404       .  A
C1         C1385   1.488       .  S
C2            C3   1.409       .  A
C2            H7   1.081       .  S
C3            C4   1.411   1_656  A
C3          C172   1.503       .  S
C4            C5   1.405   1_455  A
C4            H8   1.080       .  S
C5            C6   1.403   1_554  A
C5         C1420   1.486   1_655  S
C6            H9   1.083       .  S
C10          C11   1.407       .  A
C10          C15   1.404       .  A
C10        C1361   1.490       .  S
C11          C12   1.414       .  A
C11          H16   1.079       .  S
C12          C13   1.412   1_554  A
C12         C163   1.508       .  S
C13          C14   1.405       .  A
C13          H17   1.081       .  S
C14          C15   1.403   1_556  A
C14        C1348   1.492       .  S
C15          H18   1.083       .  S
C19          C20   1.403       .  A
C19          C24   1.401       .  A
C19        C1313   1.484       .  S
C20          C21   1.411       .  A
C20          H25   1.080       .  S
C21          C22   1.412       .  A
C21          C50   1.508   1_655  S
C22          C23   1.410       .  A
C22          H26   1.078       .  S
C23          C24   1.406       .  A
C23        C1289   1.499       .  S
C24          H27   1.082       .  S
C28          C29   1.406       .  A
C28          C33   1.404       .  A
C28        C1241   1.490       .  S
C29          C30   1.413       .  A
C29          H34   1.081       .  S
C30          C31   1.409       .  A
C30          C41   1.503       .  S
C31          C32   1.404       .  A
C31          H35   1.081       .  S
C32          C33   1.404       .  A
C32        C1276   1.484       .  S
C33          H36   1.083   1_545  S
C37          C38   1.401       .  A
C37          C42   1.403       .  A
C37        C1204   1.486       .  S
C38          C39   1.402       .  A
C38          H43   1.083       .  S
C39          C40   1.407       .  A
C39        C1228   1.489       .  S
C40          C41   1.415       .  A
C40          H44   1.081       .  S
C41          C42   1.411       .  A
C42          H45   1.080       .  S
C46          C47   1.402       .  A
C46          C51   1.405       .  A
C46        C1169   1.492       .  S
C47          C48   1.403       .  A
C47          H52   1.081       .  S
C48          C49   1.408       .  A
C48        C1145   1.498       .  S
C49          C50   1.414       .  A
C49          H53   1.077       .  S
C50          C51   1.412       .  A
C51          H54   1.080       .  S
C55        C1097   1.483       .  S
C55          N56   1.359       .  A
C55          N60   1.358       .  A
N56          C57   1.359       .  A
C57        C1337   1.478       .  S
C57          N58   1.359       .  A
N58          C59   1.358       .  A
C59        C1121   1.482       .  S
C59          N60   1.358       .  A
O61         Ni69   1.910       .  S
O61          C71   1.280       .  A
O62         Ni69   1.909       .  S
O62          C72   1.281       .  A
O63         Ni69   1.920       .  S
O63          C73   1.282       .  A
O64         Ni69   1.920       .  S
O64          C74   1.282       .  A
O65         Ni70   1.914       .  S
O65          C74   1.281       .  A
O66         Ni70   1.915       .  S
O66          C73   1.281       .  A
O67         Ni70   1.924       .  S
O67          C72   1.283       .  A
O68         Ni70   1.923       .  S
O68          C71   1.283       .  A
Ni69        Ni70   2.386       .  S
C71        C1108   1.481       .  S
C72        C1049   1.481       .  S
C73        C1073   1.481       .  S
C74        C1025   1.482       .  S
O75         Ni83   1.920       .  S
O75          C85   1.282       .  A
O76         Ni83   1.920       .  S
O76          C86   1.282       .  A
O77         Ni83   1.924       .  S
O77          C87   1.283       .  A
O78         Ni83   1.920       .  S
O78          C88   1.282       .  A
O79         Ni84   1.909       .  S
O79          C88   1.280       .  A
O80         Ni84   1.912       .  S
O80          C87   1.281       .  A
O81         Ni84   1.917       .  S
O81          C86   1.282       .  A
O82         Ni84   1.915       .  S
O82          C85   1.281       .  A
Ni83        Ni84   2.386       .  S
C85         C953   1.481       .  S
C86        C1001   1.484       .  S
C87         C988   1.482       .  S
C88        C1132   1.478       .  S
C89         C964   1.482       .  S
C89          N90   1.359       .  A
C89          N94   1.359       .  A
N90          C91   1.359       .  A
C91        C1396   1.483       .  S
C91          N92   1.359   1_655  A
N92          C93   1.359       .  A
C93         C929   1.484       .  S
C93          N94   1.358   1_455  A
O95        Ni103   1.916       .  S
O95         C105   1.282       .  A
O96        Ni103   1.916       .  S
O96         C106   1.281       .  A
O97        Ni103   1.920       .  S
O97         C107   1.282       .  A
O98        Ni103   1.921       .  S
O98         C108   1.283       .  A
O99        Ni104   1.912       .  S
O99         C108   1.280       .  A
O100       Ni104   1.913       .  S
O100        C107   1.281       .  A
O101       Ni104   1.919       .  S
O101        C106   1.282       .  A
O102       Ni104   1.920       .  S
O102        C105   1.282       .  A
Ni103      Ni104   2.386       .  S
C105        C940   1.483       .  S
C106        C892   1.481       .  S
C107        C905   1.481       .  S
C108        C868   1.481       .  S
C109       C1036   1.485       .  S
C109        N110   1.361       .  A
C109        N114   1.360       .  A
N110        C111   1.360   1_655  A
C111        C809   1.484       .  S
C111        N112   1.358       .  A
N112        C113   1.357       .  A
C113        C844   1.483       .  S
C113        N114   1.358   1_455  A
O115       Ni123   1.912       .  S
O115        C125   1.281       .  A
O116       Ni123   1.913       .  S
O116        C126   1.281       .  A
O117       Ni123   1.920       .  S
O117        C127   1.282       .  A
O118       Ni123   1.920       .  S
O118        C128   1.282       .  A
O119       Ni124   1.915       .  S
O119        C128   1.281       .  A
O120       Ni124   1.914       .  S
O120        C127   1.281       .  A
O121       Ni124   1.922       .  S
O121        C126   1.283       .  A
O122       Ni124   1.923       .  S
O122        C125   1.283       .  A
Ni123      Ni124   2.386       .  S
C125        C748   1.482       .  S
C126        C772   1.482       .  S
C127        C785   1.481       .  S
C128        C833   1.482       .  S
C129        C737   1.484       .  S
C129        N130   1.354       .  A
C129        N134   1.360       .  A
N130        C131   1.353       .  A
C131        C857   1.483       .  S
C131        N132   1.359       .  A
N132        C133   1.364       .  A
C133        C713   1.487       .  S
C133        N134   1.364       .  A
C135        C761   1.483       .  S
C135        N136   1.356       .  A
C135        N140   1.357       .  A
N136        C137   1.358       .  A
C137        C916   1.484       .  S
C137        N138   1.360       .  A
N138        C139   1.362       .  A
C139       C1156   1.479       .  S
C139        N140   1.360       .  A
C141        C796   1.483       .  S
C141        N142   1.357       .  A
C141        N146   1.356       .  A
N142        C143   1.359       .  A
C143       C1084   1.483       .  S
C143        N144   1.361       .  A
N144        C145   1.361       .  A
C145       C1193   1.483       .  S
C145        N146   1.358       .  A
C147        C881   1.485       .  S
C147        N148   1.358       .  A
C147        N152   1.357       .  A
N148        C149   1.360       .  A
C149       C1252   1.488       .  S
C149        N150   1.363       .  A
N150        C151   1.362       .  A
C151       C1012   1.488       .  S
C151        N152   1.359       .  A
C153       C1060   1.484       .  S
C153        N154   1.360       .  A
C153        N158   1.360       .  A
N154        C155   1.359       .  A
C155       C1300   1.480       .  S
C155        N156   1.358       .  A
N156        C157   1.358       .  A
C157        C977   1.484       .  S
C157        N158   1.359       .  A
C159        C160   1.403       .  A
C159        C164   1.406       .  A
C159        C689   1.487       .  S
C160        C161   1.402   1_554  A
C160        H165   1.083       .  S
C161        C162   1.405       .  A
C161        C724   1.488       .  S
C162        C163   1.414   1_556  A
C162        H166   1.081       .  S
C163        C164   1.413       .  A
C164        H167   1.080       .  S
C168        C169   1.399   1_556  A
C168        C173   1.405       .  A
C168        C820   1.485       .  S
C169        C170   1.400       .  A
C169        H174   1.084       .  S
C170        C171   1.404       .  A
C170        C665   1.483       .  S
C171        C172   1.411   1_554  A
C171        H175   1.080       .  S
C172        C173   1.414       .  A
C173        H176   1.081       .  S
C177        C617   1.485       .  S
C177        N178   1.360       .  A
C177        N182   1.360       .  A
N178        C179   1.359       .  A
C179       C1409   1.485       .  S
C179        N180   1.359   1_455  A
N180        C181   1.359       .  A
C181        C652   1.484       .  S
C181        N182   1.359   1_655  A
O183       Ni191   1.915       .  S
O183        C193   1.281       .  A
O184       Ni191   1.915       .  S
O184        C194   1.282       .  A
O185       Ni191   1.914       .  S
O185        C195   1.281       .  A
O186       Ni191   1.913       .  S
O186        C196   1.281       .  A
O187       Ni192   1.921       .  S
O187        C196   1.282       .  A
O188       Ni192   1.922       .  S
O188        C195   1.283       .  A
O189       Ni192   1.912       .  S
O189        C194   1.280       .  A
O190       Ni192   1.914       .  S
O190        C193   1.281       .  A
Ni191      Ni192   2.387       .  S
C193        C604   1.479       .  S
C194        C556   1.478       .  S
C195        C628   1.482       .  S
C196        C580   1.481       .  S
O197       Ni205   1.916       .  S
O197        C207   1.281       .  A
O198       Ni205   1.915       .  S
O198        C208   1.282       .  A
O199       Ni205   1.917       .  S
O199        C209   1.282       .  A
O200       Ni205   1.916       .  S
O200        C210   1.281       .  A
O201       Ni206   1.916       .  S
O201        C210   1.282       .  A
O202       Ni206   1.916       .  S
O202        C209   1.281       .  A
O203       Ni206   1.919       .  S
O203        C208   1.282       .  A
O204       Ni206   1.920       .  S
O204        C207   1.282       .  A
Ni205      Ni206   2.386       .  S
C207        C521   1.482       .  S
C208        C484   1.482       .  S
C209        C641   1.481       .  S
C210        C508   1.480       .  S
C211        C473   1.485       .  S
C211        N212   1.360       .  A
C211        N216   1.358       .  A
N212        C213   1.360       .  A
C213       C1372   1.487       .  S
C213        N214   1.360       .  A
N214        C215   1.360       .  A
C215        C449   1.483       .  S
C215        N216   1.358       .  A
O217       Ni225   1.920       .  S
O217        C227   1.283       .  A
O218       Ni225   1.921       .  S
O218        C228   1.283       .  A
O219       Ni225   1.910       .  S
O219        C229   1.280       .  A
O220       Ni225   1.912       .  S
O220        C230   1.280       .  A
O221       Ni226   1.923       .  S
O221        C230   1.283       .  A
O222       Ni226   1.922       .  S
O222        C229   1.283       .  A
O223       Ni226   1.914       .  S
O223        C228   1.281       .  A
O224       Ni226   1.915       .  S
O224        C227   1.281       .  A
Ni225      Ni226   2.386       .  S
C227        C377   1.481       .  S
C228        C425   1.482       .  S
C229        C401   1.481       .  S
C230        C460   1.482       .  S
C231        C545   1.480       .  S
C231        N232   1.354       .  A
C231        N236   1.358       .  A
N232        C233   1.355       .  A
C233        C353   1.483       .  S
C233        N234   1.361       .  A
N234        C235   1.363       .  A
C235        C700   1.485       .  S
C235        N236   1.361       .  A
C237        C329   1.483   1_655  S
C237        N238   1.362       .  A
C237        N242   1.357       .  A
N238        C239   1.362       .  A
C239        C388   1.483       .  S
C239        N240   1.358       .  A
N240        C241   1.355       .  A
C241        C676   1.480       .  S
C241        N242   1.355       .  A
O243       Ni251   1.915       .  S
O243        C253   1.281       .  A
O244       Ni251   1.915       .  S
O244        C254   1.281       .  A
O245       Ni251   1.920       .  S
O245        C255   1.282       .  A
O246       Ni251   1.920       .  S
O246        C256   1.283       .  A
O247       Ni252   1.914       .  S
O247        C256   1.281       .  A
O248       Ni252   1.914       .  S
O248        C255   1.281       .  A
O249       Ni252   1.919       .  S
O249        C254   1.282       .  A
O250       Ni252   1.917       .  S
O250        C253   1.282       .  A
Ni251      Ni252   2.386       .  S
C253        C340   1.480       .  S
C254        C281   1.481       .  S
C255        C305   1.482       .  S
C256        C364   1.481       .  S
C257        C436   1.485       .  S
C257        N258   1.360       .  A
C257        N262   1.359       .  A
N258        C259   1.360       .  A
C259       C1217   1.487       .  S
C259        N260   1.359       .  A
N260        C261   1.360       .  A
C261        C292   1.484       .  S
C261        N262   1.359       .  A
C263        C316   1.483       .  S
C263        N264   1.358       .  A
C263        N268   1.357       .  A
N264        C265   1.360       .  A
C265       C1180   1.478       .  S
C265        N266   1.360       .  A
N266        C267   1.359       .  A
C267        C593   1.482       .  S
C267        N268   1.357       .  A
C269        C412   1.482       .  S
C269        N270   1.359       .  A
C269        N274   1.358       .  A
N270        C271   1.360       .  A
C271        C532   1.484       .  S
C271        N272   1.360       .  A
N272        C273   1.359       .  A
C273       C1324   1.484       .  S
C273        N274   1.357       .  A
C275        C497   1.483       .  S
C275        N276   1.360       .  A
C275        N280   1.358       .  A
N276        C277   1.359       .  A
C277       C1265   1.484       .  S
C277        N278   1.360       .  A
N278        C279   1.359       .  A
C279        C569   1.483       .  S
C279        N280   1.357       .  A
C281        C282   1.406       .  A
C281        C286   1.405       .  A
C282        C283   1.399       .  A
C282        H295   1.083       .  S
C283        C284   1.404       .  A
C283        H296   1.083       .  S
C284        C285   1.408       .  A
C284        C287   1.488       .  S
C285        C286   1.396       .  A
C285        H297   1.081       .  S
C286        H298   1.083       .  S
C287        C288   1.348       .  D
C287        H299   1.083       .  S
C288        C289   1.488       .  S
C288        H300   1.084       .  S
C289        C290   1.404       .  A
C289        C294   1.409       .  A
C290        C291   1.396       .  A
C290        H301   1.083       .  S
C291        C292   1.405       .  A
C291        H302   1.083       .  S
C292        C293   1.407       .  A
C293        C294   1.399       .  A
C293        H303   1.083       .  S
C294        H304   1.080       .  S
C305        C306   1.406       .  A
C305        C310   1.405       .  A
C306        C307   1.400       .  A
C306        H319   1.083       .  S
C307        C308   1.404       .  A
C307        H320   1.083       .  S
C308        C309   1.407       .  A
C308        C311   1.487       .  S
C309        C310   1.396       .  A
C309        H321   1.082       .  S
C310        H322   1.083       .  S
C311        C312   1.348       .  D
C311        H323   1.084       .  S
C312        C313   1.487       .  S
C312        H324   1.085       .  S
C313        C314   1.403       .  A
C313        C318   1.409       .  A
C314        C315   1.395       .  A
C314        H325   1.083       .  S
C315        C316   1.405       .  A
C315        H326   1.083       .  S
C316        C317   1.406       .  A
C317        C318   1.401       .  A
C317        H327   1.083       .  S
C318        H328   1.081       .  S
C329        C330   1.407       .  A
C329        C334   1.406       .  A
C330        C331   1.394       .  A
C330        H343   1.083       .  S
C331        C332   1.401       .  A
C331        H344   1.083       .  S
C332        C333   1.408       .  A
C332        C335   1.483       .  S
C333        C334   1.401       .  A
C333        H345   1.082       .  S
C334        H346   1.083       .  S
C335        C336   1.347       .  D
C335        H347   1.083       .  S
C336        C337   1.488       .  S
C336        H348   1.085       .  S
C337        C338   1.403       .  A
C337        C342   1.409       .  A
C338        C339   1.398       .  A
C338        H349   1.083       .  S
C339        C340   1.406       .  A
C339        H350   1.083       .  S
C340        C341   1.404       .  A
C341        C342   1.397       .  A
C341        H351   1.083       .  S
C342        H352   1.081       .  S
C353        C354   1.407       .  A
C353        C358   1.405       .  A
C354        C355   1.394       .  A
C354        H367   1.083       .  S
C355        C356   1.401       .  A
C355        H368   1.084       .  S
C356        C357   1.409       .  A
C356        C359   1.485       .  S
C357        C358   1.401       .  A
C357        H369   1.081       .  S
C358        H370   1.083       .  S
C359        C360   1.346       .  D
C359        H371   1.085       .  S
C360        C361   1.486       .  S
C360        H372   1.085       .  S
C361        C362   1.402       .  A
C361        C366   1.408       .  A
C362        C363   1.397       .  A
C362        H373   1.083       .  S
C363        C364   1.406       .  A
C363        H374   1.083       .  S
C364        C365   1.405       .  A
C365        C366   1.398       .  A
C365        H375   1.083       .  S
C366        H376   1.081       .  S
C377        C378   1.406       .  A
C377        C382   1.404       .  A
C378        C379   1.399       .  A
C378        H391   1.083       .  S
C379        C380   1.403       .  A
C379        H392   1.083       .  S
C380        C381   1.409       .  A
C380        C383   1.488       .  S
C381        C382   1.396       .  A
C381        H393   1.081       .  S
C382        H394   1.083       .  S
C383        C384   1.346       .  D
C383        H395   1.085       .  S
C384        C385   1.483       .  S
C384        H396   1.084       .  S
C385        C386   1.401       .  A
C385        C390   1.408       .  A
C386        C387   1.393       .  A
C386        H397   1.084       .  S
C387        C388   1.406       .  A
C387        H398   1.083       .  S
C388        C389   1.407       .  A
C389        C390   1.402       .  A
C389        H399   1.083       .  S
C390        H400   1.082       .  S
C401        C402   1.406       .  A
C401        C406   1.405       .  A
C402        C403   1.396       .  A
C402        H415   1.083       .  S
C403        C404   1.402       .  A
C403        H416   1.084       .  S
C404        C405   1.409       .  A
C404        C407   1.486       .  S
C405        C406   1.399       .  A
C405        H417   1.081       .  S
C406        H418   1.083       .  S
C407        C408   1.346       .  D
C407        H419   1.085       .  S
C408        C409   1.485       .  S
C408        H420   1.084       .  S
C409        C410   1.402       .  A
C409        C414   1.408       .  A
C410        C411   1.396       .  A
C410        H421   1.084       .  S
C411        C412   1.406       .  A
C411        H422   1.083       .  S
C412        C413   1.406       .  A
C413        C414   1.399       .  A
C413        H423   1.083       .  S
C414        H424   1.081       .  S
C425        C426   1.406       .  A
C425        C430   1.405       .  A
C426        C427   1.400       .  A
C426        H439   1.083       .  S
C427        C428   1.405       .  A
C427        H440   1.083       .  S
C428        C429   1.408       .  A
C428        C431   1.489       .  S
C429        C430   1.397       .  A
C429        H441   1.081       .  S
C430        H442   1.083       .  S
C431        C432   1.349       .  D
C431        H443   1.084       .  S
C432        C433   1.488       .  S
C432        H444   1.084       .  S
C433        C434   1.404       .  A
C433        C438   1.408       .  A
C434        C435   1.397       .  A
C434        H445   1.083       .  S
C435        C436   1.405       .  A
C435        H446   1.083       .  S
C436        C437   1.407       .  A
C437        C438   1.400       .  A
C437        H447   1.083       .  S
C438        H448   1.081       .  S
C449        C450   1.406       .  A
C449        C454   1.406       .  A
C450        C451   1.397       .  A
C450        H463   1.083       .  S
C451        C452   1.403       .  A
C451        H464   1.083       .  S
C452        C453   1.409       .  A
C452        C455   1.488       .  S
C453        C454   1.399       .  A
C453        H465   1.081       .  S
C454        H466   1.083       .  S
C455        C456   1.348       .  D
C455        H467   1.083       .  S
C456        C457   1.490       .  S
C456        H468   1.085       .  S
C457        C458   1.403       .  A
C457        C462   1.410       .  A
C458        C459   1.397       .  A
C458        H469   1.083       .  S
C459        C460   1.406       .  A
C459        H470   1.083       .  S
C460        C461   1.405       .  A
C461        C462   1.399       .  A
C461        H471   1.083       .  S
C462        H472   1.080       .  S
C473        C474   1.405       .  A
C473        C478   1.408       .  A
C474        C475   1.397       .  A
C474        H487   1.083       .  S
C475        C476   1.403       .  A
C475        H488   1.084   1_545  S
C476        C477   1.407       .  A
C476        C479   1.485   1_545  S
C477        C478   1.400       .  A
C477        H489   1.081       .  S
C478        H490   1.083       .  S
C479        C480   1.348       .  D
C479        H491   1.084       .  S
C480        C481   1.490       .  S
C480        H492   1.085       .  S
C481        C482   1.404       .  A
C481        C486   1.409       .  A
C482        C483   1.399       .  A
C482        H493   1.083       .  S
C483        C484   1.405       .  A
C483        H494   1.083       .  S
C484        C485   1.405       .  A
C485        C486   1.397       .  A
C485        H495   1.083       .  S
C486        H496   1.080       .  S
C497        C498   1.407       .  A
C497        C502   1.405       .  A
C498        C499   1.397       .  A
C498        H511   1.083       .  S
C499        C500   1.403       .  A
C499        H512   1.083       .  S
C500        C501   1.409       .  A
C500        C503   1.487       .  S
C501        C502   1.397       .  A
C501        H513   1.080       .  S
C502        H514   1.083       .  S
C503        C504   1.347       .  D
C503        H515   1.084       .  S
C504        C505   1.487       .  S
C504        H516   1.084       .  S
C505        C506   1.403       .  A
C505        C510   1.409       .  A
C506        C507   1.396       .  A
C506        H517   1.084       .  S
C507        C508   1.404       .  A
C507        H518   1.083       .  S
C508        C509   1.406       .  A
C509        C510   1.399       .  A
C509        H519   1.083       .  S
C510        H520   1.080       .  S
C521        C522   1.406       .  A
C521        C526   1.405       .  A
C522        C523   1.398       .  A
C522        H535   1.083       .  S
C523        C524   1.403       .  A
C523        H536   1.084       .  S
C524        C525   1.408       .  A
C524        C527   1.487       .  S
C525        C526   1.399       .  A
C525        H537   1.081       .  S
C526        H538   1.083       .  S
C527        C528   1.348       .  D
C527        H539   1.084       .  S
C528        C529   1.488       .  S
C528        H540   1.085       .  S
C529        C530   1.403       .  A
C529        C534   1.409       .  A
C530        C531   1.397       .  A
C530        H541   1.084       .  S
C531        C532   1.405       .  A
C531        H542   1.083       .  S
C532        C533   1.406       .  A
C533        C534   1.399       .  A
C533        H543   1.083       .  S
C534        H544   1.080       .  S
C545        C546   1.406       .  A
C545        C550   1.406       .  A
C546        C547   1.393       .  A
C546        H559   1.083       .  S
C547        C548   1.401   1_545  A
C547        H560   1.084       .  S
C548        C549   1.408       .  A
C548        C551   1.482       .  S
C549        C550   1.400   1_565  A
C549        H561   1.081       .  S
C550        H562   1.083       .  S
C551        C552   1.345       .  D
C551        H563   1.086       .  S
C552        C553   1.482       .  S
C552        H564   1.084       .  S
C553        C554   1.402       .  A
C553        C558   1.407       .  A
C554        C555   1.398       .  A
C554        H565   1.083       .  S
C555        C556   1.406       .  A
C555        H566   1.083       .  S
C556        C557   1.404       .  A
C557        C558   1.395       .  A
C557        H567   1.083       .  S
C558        H568   1.082       .  S
C569        C570   1.405       .  A
C569        C574   1.407       .  A
C570        C571   1.397       .  A
C570        H583   1.083       .  S
C571        C572   1.404       .  A
C571        H584   1.083       .  S
C572        C573   1.407       .  A
C572        C575   1.486       .  S
C573        C574   1.399       .  A
C573        H585   1.081       .  S
C574        H586   1.083       .  S
C575        C576   1.349       .  D
C575        H587   1.083       .  S
C576        C577   1.490       .  S
C576        H588   1.084       .  S
C577        C578   1.405       .  A
C577        C582   1.408       .  A
C578        C579   1.400       .  A
C578        H589   1.083       .  S
C579        C580   1.405       .  A
C579        H590   1.083       .  S
C580        C581   1.405       .  A
C581        C582   1.396       .  A
C581        H591   1.083       .  S
C582        H592   1.080       .  S
C593        C594   1.406       .  A
C593        C598   1.406       .  A
C594        C595   1.395       .  A
C594        H607   1.083       .  S
C595        C596   1.402       .  A
C595        H608   1.083       .  S
C596        C597   1.408       .  A
C596        C599   1.484       .  S
C597        C598   1.400       .  A
C597        H609   1.081       .  S
C598        H610   1.083       .  S
C599        C600   1.346       .  D
C599        H611   1.085       .  S
C600        C601   1.483       .  S
C600        H612   1.084       .  S
C601        C602   1.402       .  A
C601        C606   1.407       .  A
C602        C603   1.398       .  A
C602        H613   1.083       .  S
C603        C604   1.406       .  A
C603        H614   1.083       .  S
C604        C605   1.405       .  A
C605        C606   1.396       .  A
C605        H615   1.083       .  S
C606        H616   1.082       .  S
C617        C618   1.405       .  A
C617        C622   1.408       .  A
C618        C619   1.396       .  A
C618        H631   1.083       .  S
C619        C620   1.403       .  A
C619        H632   1.083       .  S
C620        C621   1.408       .  A
C620        C623   1.487       .  S
C621        C622   1.400       .  A
C621        H633   1.081       .  S
C622        H634   1.083       .  S
C623        C624   1.348       .  D
C623        H635   1.083       .  S
C624        C625   1.490       .  S
C624        H636   1.084       .  S
C625        C626   1.404       .  A
C625        C630   1.409       .  A
C626        C627   1.398       .  A
C626        H637   1.083       .  S
C627        C628   1.406       .  A
C627        H638   1.083       .  S
C628        C629   1.404       .  A
C629        C630   1.398       .  A
C629        H639   1.083       .  S
C630        H640   1.080       .  S
C641        C642   1.406       .  A
C641        C646   1.405       .  A
C642        C643   1.398       .  A
C642        H655   1.083       .  S
C643        C644   1.404       .  A
C643        H656   1.083       .  S
C644        C645   1.408       .  A
C644        C647   1.488       .  S
C645        C646   1.397       .  A
C645        H657   1.081       .  S
C646        H658   1.083       .  S
C647        C648   1.348       .  D
C647        H659   1.084       .  S
C648        C649   1.488       .  S
C648        H660   1.084       .  S
C649        C650   1.403       .  A
C649        C654   1.408       .  A
C650        C651   1.397       .  A
C650        H661   1.083       .  S
C651        C652   1.406       .  A
C651        H662   1.083       .  S
C652        C653   1.406       .  A
C653        C654   1.399       .  A
C653        H663   1.083       .  S
C654        H664   1.081       .  S
C665        C666   1.405   1_655  A
C665        C670   1.405       .  A
C666        C667   1.394       .  A
C666        H679   1.083       .  S
C667        C668   1.402   1_455  A
C667        H680   1.083       .  S
C668        C669   1.408       .  A
C668        C671   1.483       .  S
C669        C670   1.397       .  A
C669        H681   1.081       .  S
C670        H682   1.083       .  S
C671        C672   1.346       .  D
C671        H683   1.085   1_655  S
C672        C673   1.483       .  S
C672        H684   1.084       .  S
C673        C674   1.403       .  A
C673        C678   1.407       .  A
C674        C675   1.397       .  A
C674        H685   1.083       .  S
C675        C676   1.406       .  A
C675        H686   1.083       .  S
C676        C677   1.405       .  A
C677        C678   1.395       .  A
C677        H687   1.083   1_655  S
C678        H688   1.081   1_655  S
C689        C690   1.404       .  A
C689        C694   1.406       .  A
C690        C691   1.398       .  A
C690        H703   1.083       .  S
C691        C692   1.405       .  A
C691        H704   1.083       .  S
C692        C693   1.409       .  A
C692        C695   1.490       .  S
C693        C694   1.400       .  A
C693        H705   1.081       .  S
C694        H706   1.083       .  S
C695        C696   1.350       .  D
C695        H707   1.085       .  S
C696        C697   1.490       .  S
C696        H708   1.084       .  S
C697        C698   1.405       .  A
C697        C702   1.407       .  A
C698        C699   1.400       .  A
C698        H709   1.083       .  S
C699        C700   1.406       .  A
C699        H710   1.083       .  S
C700        C701   1.406       .  A
C701        C702   1.397       .  A
C701        H711   1.083       .  S
C702        H712   1.081       .  S
C713        C714   1.406       .  A
C713        C718   1.407       .  A
C714        C715   1.399       .  A
C714        H727   1.083       .  S
C715        C716   1.404       .  A
C715        H728   1.083       .  S
C716        C717   1.409       .  A
C716        C719   1.491       .  S
C717        C718   1.400       .  A
C717        H729   1.081       .  S
C718        H730   1.083       .  S
C719        C720   1.349       .  D
C719        H731   1.085       .  S
C720        C721   1.490       .  S
C720        H732   1.084       .  S
C721        C722   1.405       .  A
C721        C726   1.409       .  A
C722        C723   1.399       .  A
C722        H733   1.083       .  S
C723        C724   1.405       .  A
C723        H734   1.083       .  S
C724        C725   1.405       .  A
C725        C726   1.399       .  A
C725        H735   1.083       .  S
C726        H736   1.081       .  S
C737        C738   1.406       .  A
C737        C742   1.406       .  A
C738        C739   1.392       .  A
C738        H751   1.083       .  S
C739        C740   1.402       .  A
C739        H752   1.084       .  S
C740        C741   1.411       .  A
C740        C743   1.489       .  S
C741        C742   1.403       .  A
C741        H753   1.080       .  S
C742        H754   1.083       .  S
C743        C744   1.348       .  D
C743        H755   1.084       .  S
C744        C745   1.490       .  S
C744        H756   1.083       .  S
C745        C746   1.405       .  A
C745        C750   1.408       .  A
C746        C747   1.401       .  A
C746        H757   1.083       .  S
C747        C748   1.406       .  A
C747        H758   1.083       .  S
C748        C749   1.405       .  A
C749        C750   1.396       .  A
C749        H759   1.083       .  S
C750        H760   1.081       .  S
C761        C762   1.406       .  A
C761        C766   1.407       .  A
C762        C763   1.395       .  A
C762        H775   1.083       .  S
C763        C764   1.402       .  A
C763        H776   1.083       .  S
C764        C765   1.408       .  A
C764        C767   1.486       .  S
C765        C766   1.400       .  A
C765        H777   1.081       .  S
C766        H778   1.083       .  S
C767        C768   1.347       .  D
C767        H779   1.085       .  S
C768        C769   1.488       .  S
C768        H780   1.085       .  S
C769        C770   1.403       .  A
C769        C774   1.409       .  A
C770        C771   1.398       .  A
C770        H781   1.083       .  S
C771        C772   1.406       .  A
C771        H782   1.083       .  S
C772        C773   1.405       .  A
C773        C774   1.398       .  A
C773        H783   1.083       .  S
C774        H784   1.081       .  S
C785        C786   1.405       .  A
C785        C790   1.405       .  A
C786        C787   1.397       .  A
C786        H799   1.083       .  S
C787        C788   1.404       .  A
C787        H800   1.083       .  S
C788        C789   1.410       .  A
C788        C791   1.490       .  S
C789        C790   1.399       .  A
C789        H801   1.080       .  S
C790        H802   1.083       .  S
C791        C792   1.348       .  D
C791        H803   1.085       .  S
C792        C793   1.486       .  S
C792        H804   1.083       .  S
C793        C794   1.403       .  A
C793        C798   1.408       .  A
C794        C795   1.397       .  A
C794        H805   1.083       .  S
C795        C796   1.406       .  A
C795        H806   1.083       .  S
C796        C797   1.406       .  A
C797        C798   1.398       .  A
C797        H807   1.083       .  S
C798        H808   1.081       .  S
C809        C810   1.407       .  A
C809        C814   1.406   1_455  A
C810        C811   1.397       .  A
C810        H823   1.083       .  S
C811        C812   1.402       .  A
C811        H824   1.083       .  S
C812        C813   1.408   1_455  A
C812        C815   1.487       .  S
C813        C814   1.399       .  A
C813        H825   1.082       .  S
C814        H826   1.083       .  S
C815        C816   1.347   1_455  D
C815        H827   1.085       .  S
C816        C817   1.488       .  S
C816        H828   1.085       .  S
C817        C818   1.404       .  A
C817        C822   1.409   1_655  A
C818        C819   1.397       .  A
C818        H829   1.084       .  S
C819        C820   1.404       .  A
C819        H830   1.083       .  S
C820        C821   1.406   1_655  A
C821        C822   1.398       .  A
C821        H831   1.083       .  S
C822        H832   1.081       .  S
C833        C834   1.405       .  A
C833        C838   1.405       .  A
C834        C835   1.396       .  A
C834        H847   1.083       .  S
C835        C836   1.404       .  A
C835        H848   1.084       .  S
C836        C837   1.410       .  A
C836        C839   1.490       .  S
C837        C838   1.400       .  A
C837        H849   1.079       .  S
C838        H850   1.083       .  S
C839        C840   1.349       .  D
C839        H851   1.083       .  S
C840        C841   1.490       .  S
C840        H852   1.083       .  S
C841        C842   1.404       .  A
C841        C846   1.408       .  A
C842        C843   1.399       .  A
C842        H853   1.084       .  S
C843        C844   1.406       .  A
C843        H854   1.083       .  S
C844        C845   1.406       .  A
C845        C846   1.397       .  A
C845        H855   1.083       .  S
C846        H856   1.080       .  S
C857        C858   1.407       .  A
C857        C862   1.406       .  A
C858        C859   1.393       .  A
C858        H871   1.083       .  S
C859        C860   1.400   1_545  A
C859        H872   1.084       .  S
C860        C861   1.410       .  A
C860        C863   1.485       .  S
C861        C862   1.402   1_565  A
C861        H873   1.081       .  S
C862        H874   1.083       .  S
C863        C864   1.346       .  D
C863        H875   1.085       .  S
C864        C865   1.486       .  S
C864        H876   1.084       .  S
C865        C866   1.402       .  A
C865        C870   1.409       .  A
C866        C867   1.397       .  A
C866        H877   1.083       .  S
C867        C868   1.406       .  A
C867        H878   1.083       .  S
C868        C869   1.405       .  A
C869        C870   1.398       .  A
C869        H879   1.083       .  S
C870        H880   1.081       .  S
C881        C882   1.406       .  A
C881        C886   1.406       .  A
C882        C883   1.398       .  A
C882        H895   1.083       .  S
C883        C884   1.404       .  A
C883        H896   1.083       .  S
C884        C885   1.408       .  A
C884        C887   1.488       .  S
C885        C886   1.398       .  A
C885        H897   1.081       .  S
C886        H898   1.083       .  S
C887        C888   1.348       .  D
C887        H899   1.084       .  S
C888        C889   1.487       .  S
C888        H900   1.084       .  S
C889        C890   1.404       .  A
C889        C894   1.408       .  A
C890        C891   1.398       .  A
C890        H901   1.083       .  S
C891        C892   1.405       .  A
C891        H902   1.083       .  S
C892        C893   1.406       .  A
C893        C894   1.398       .  A
C893        H903   1.083       .  S
C894        H904   1.081       .  S
C905        C906   1.406       .  A
C905        C910   1.405       .  A
C906        C907   1.400       .  A
C906        H919   1.083       .  S
C907        C908   1.403       .  A
C907        H920   1.083       .  S
C908        C909   1.408       .  A
C908        C911   1.487       .  S
C909        C910   1.395       .  A
C909        H921   1.082       .  S
C910        H922   1.083       .  S
C911        C912   1.347       .  D
C911        H923   1.085       .  S
C912        C913   1.485       .  S
C912        H924   1.085       .  S
C913        C914   1.401       .  A
C913        C918   1.409       .  A
C914        C915   1.393       .  A
C914        H925   1.084       .  S
C915        C916   1.406       .  A
C915        H926   1.083       .  S
C916        C917   1.407       .  A
C917        C918   1.402       .  A
C917        H927   1.083       .  S
C918        H928   1.081       .  S
C929        C930   1.405       .  A
C929        C934   1.407       .  A
C930        C931   1.397       .  A
C930        H943   1.083       .  S
C931        C932   1.404       .  A
C931        H944   1.083       .  S
C932        C933   1.409       .  A
C932        C935   1.489       .  S
C933        C934   1.399       .  A
C933        H945   1.080       .  S
C934        H946   1.083       .  S
C935        C936   1.349       .  D
C935        H947   1.084       .  S
C936        C937   1.489       .  S
C936        H948   1.084       .  S
C937        C938   1.404       .  A
C937        C942   1.409       .  A
C938        C939   1.398       .  A
C938        H949   1.083       .  S
C939        C940   1.406       .  A
C939        H950   1.083       .  S
C940        C941   1.405       .  A
C941        C942   1.399       .  A
C941        H951   1.083       .  S
C942        H952   1.081       .  S
C953        C954   1.405       .  A
C953        C958   1.405       .  A
C954        C955   1.398       .  A
C954        H967   1.083       .  S
C955        C956   1.404       .  A
C955        H968   1.083       .  S
C956        C957   1.409       .  A
C956        C959   1.488       .  S
C957        C958   1.397       .  A
C957        H969   1.080       .  S
C958        H970   1.083       .  S
C959        C960   1.348       .  D
C959        H971   1.085       .  S
C960        C961   1.485       .  S
C960        H972   1.084       .  S
C961        C962   1.403       .  A
C961        C966   1.408       .  A
C962        C963   1.396       .  A
C962        H973   1.084       .  S
C963        C964   1.406       .  A
C963        H974   1.083       .  S
C964        C965   1.406       .  A
C965        C966   1.398       .  A
C965        H975   1.083       .  S
C966        H976   1.081       .  S
C977        C978   1.406       .  A
C977        C982   1.406       .  A
C978        C979   1.399       .  A
C978        H991   1.083       .  S
C979        C980   1.404       .  A
C979        H992   1.083       .  S
C980        C981   1.409       .  A
C980        C983   1.490       .  S
C981        C982   1.397       .  A
C981        H993   1.080       .  S
C982        H994   1.083       .  S
C983        C984   1.348       .  D
C983        H995   1.085       .  S
C984        C985   1.485       .  S
C984        H996   1.083       .  S
C985        C986   1.402       .  A
C985        C990   1.408       .  A
C986        C987   1.396       .  A
C986        H997   1.083       .  S
C987        C988   1.406       .  A
C987        H998   1.083       .  S
C988        C989   1.406       .  A
C989        C990   1.400       .  A
C989        H999   1.083       .  S
C990       H1000   1.082       .  S
C1001      C1002   1.406       .  A
C1001      C1006   1.406       .  A
C1002      C1003   1.398       .  A
C1002      H1015   1.083       .  S
C1003      C1004   1.403       .  A
C1003      H1016   1.084       .  S
C1004      C1005   1.409       .  A
C1004      C1007   1.490       .  S
C1005      C1006   1.401       .  A
C1005      H1017   1.081       .  S
C1006      H1018   1.083       .  S
C1007      C1008   1.349       .  D
C1007      H1019   1.084       .  S
C1008      C1009   1.492       .  S
C1008      H1020   1.085       .  S
C1009      C1010   1.403       .  A
C1009      C1014   1.410       .  A
C1010      C1011   1.397       .  A
C1010      H1021   1.084       .  S
C1011      C1012   1.407       .  A
C1011      H1022   1.083       .  S
C1012      C1013   1.406       .  A
C1013      C1014   1.402       .  A
C1013      H1023   1.083       .  S
C1014      H1024   1.080       .  S
C1025      C1026   1.405       .  A
C1025      C1030   1.405       .  A
C1026      C1027   1.397       .  A
C1026      H1039   1.083       .  S
C1027      C1028   1.404       .  A
C1027      H1040   1.083       .  S
C1028      C1029   1.409       .  A
C1028      C1031   1.490       .  S
C1029      C1030   1.400       .  A
C1029      H1041   1.080       .  S
C1030      H1042   1.083       .  S
C1031      C1032   1.349       .  D
C1031      H1043   1.084       .  S
C1032      C1033   1.488       .  S
C1032      H1044   1.083       .  S
C1033      C1034   1.404       .  A
C1033      C1038   1.407       .  A
C1034      C1035   1.399       .  A
C1034      H1045   1.083       .  S
C1035      C1036   1.406       .  A
C1035      H1046   1.083       .  S
C1036      C1037   1.406       .  A
C1037      C1038   1.397       .  A
C1037      H1047   1.083       .  S
C1038      H1048   1.081       .  S
C1049      C1050   1.405       .  A
C1049      C1054   1.406       .  A
C1050      C1051   1.394       .  A
C1050      H1063   1.083       .  S
C1051      C1052   1.403       .  A
C1051      H1064   1.084       .  S
C1052      C1053   1.410       .  A
C1052      C1055   1.488       .  S
C1053      C1054   1.402       .  A
C1053      H1065   1.080       .  S
C1054      H1066   1.083       .  S
C1055      C1056   1.347       .  D
C1055      H1067   1.085       .  S
C1056      C1057   1.488       .  S
C1056      H1068   1.083       .  S
C1057      C1058   1.403       .  A
C1057      C1062   1.408       .  A
C1058      C1059   1.399       .  A
C1058      H1069   1.084       .  S
C1059      C1060   1.407       .  A
C1059      H1070   1.083       .  S
C1060      C1061   1.405       .  A
C1061      C1062   1.397       .  A
C1061      H1071   1.083       .  S
C1062      H1072   1.081       .  S
C1073      C1074   1.406       .  A
C1073      C1078   1.405       .  A
C1074      C1075   1.397       .  A
C1074      H1087   1.083       .  S
C1075      C1076   1.403       .  A
C1075      H1088   1.084       .  S
C1076      C1077   1.409       .  A
C1076      C1079   1.489       .  S
C1077      C1078   1.398       .  A
C1077      H1089   1.080       .  S
C1078      H1090   1.083       .  S
C1079      C1080   1.347       .  D
C1079      H1091   1.085       .  S
C1080      C1081   1.486       .  S
C1080      H1092   1.084       .  S
C1081      C1082   1.402       .  A
C1081      C1086   1.408       .  A
C1082      C1083   1.395       .  A
C1082      H1093   1.084       .  S
C1083      C1084   1.406       .  A
C1083      H1094   1.083       .  S
C1084      C1085   1.406       .  A
C1085      C1086   1.400       .  A
C1085      H1095   1.083       .  S
C1086      H1096   1.081       .  S
C1097      C1098   1.407       .  A
C1097      C1102   1.406       .  A
C1098      C1099   1.397       .  A
C1098      H1111   1.083       .  S
C1099      C1100   1.402       .  A
C1099      H1112   1.083       .  S
C1100      C1101   1.407       .  A
C1100      C1103   1.485       .  S
C1101      C1102   1.398       .  A
C1101      H1113   1.082       .  S
C1102      H1114   1.083       .  S
C1103      C1104   1.347       .  D
C1103      H1115   1.083       .  S
C1104      C1105   1.487       .  S
C1104      H1116   1.085       .  S
C1105      C1106   1.403       .  A
C1105      C1110   1.409       .  A
C1106      C1107   1.396       .  A
C1106      H1117   1.083       .  S
C1107      C1108   1.405       .  A
C1107      H1118   1.083       .  S
C1108      C1109   1.405       .  A
C1109      C1110   1.399       .  A
C1109      H1119   1.083       .  S
C1110      H1120   1.081       .  S
C1121      C1122   1.407   1_545  A
C1121      C1126   1.406       .  A
C1122      C1123   1.398       .  A
C1122      H1135   1.083       .  S
C1123      C1124   1.403       .  A
C1123      H1136   1.083       .  S
C1124      C1125   1.407       .  A
C1124      C1127   1.485       .  S
C1125      C1126   1.396   1_565  A
C1125      H1137   1.081       .  S
C1126      H1138   1.083       .  S
C1127      C1128   1.347       .  D
C1127      H1139   1.084       .  S
C1128      C1129   1.486       .  S
C1128      H1140   1.085       .  S
C1129      C1130   1.403       .  A
C1129      C1134   1.409       .  A
C1130      C1131   1.394       .  A
C1130      H1141   1.084       .  S
C1131      C1132   1.404       .  A
C1131      H1142   1.083       .  S
C1132      C1133   1.405       .  A
C1133      C1134   1.400       .  A
C1133      H1143   1.083       .  S
C1134      H1144   1.081       .  S
C1145      C1146   1.411       .  A
C1145      C1150   1.411       .  A
C1146      C1147   1.395       .  A
C1146      H1159   1.082       .  S
C1147      C1148   1.398       .  A
C1147      H1160   1.083       .  S
C1148      C1149   1.403       .  A
C1148      C1151   1.477       .  S
C1149      C1150   1.401       .  A
C1149      H1161   1.083       .  S
C1150      H1162   1.081       .  S
C1151      C1152   1.344       .  D
C1151      H1163   1.086       .  S
C1152      C1153   1.481       .  S
C1152      H1164   1.087       .  S
C1153      C1154   1.403       .  A
C1153      C1158   1.405       .  A
C1154      C1155   1.400       .  A
C1154      H1165   1.083       .  S
C1155      C1156   1.406       .  A
C1155      H1166   1.083       .  S
C1156      C1157   1.405       .  A
C1157      C1158   1.397       .  A
C1157      H1167   1.083       .  S
C1158      H1168   1.083       .  S
C1169      C1170   1.409       .  A
C1169      C1174   1.408       .  A
C1170      C1171   1.396       .  A
C1170      H1183   1.082       .  S
C1171      C1172   1.400       .  A
C1171      H1184   1.083       .  S
C1172      C1173   1.405       .  A
C1172      C1175   1.479       .  S
C1173      C1174   1.399       .  A
C1173      H1185   1.083       .  S
C1174      H1186   1.082       .  S
C1175      C1176   1.344       .  D
C1175      H1187   1.087       .  S
C1176      C1177   1.481       .  S
C1176      H1188   1.087       .  S
C1177      C1178   1.402       .  A
C1177      C1182   1.405       .  A
C1178      C1179   1.399       .  A
C1178      H1189   1.083       .  S
C1179      C1180   1.405       .  A
C1179      H1190   1.083       .  S
C1180      C1181   1.405       .  A
C1181      C1182   1.397       .  A
C1181      H1191   1.083       .  S
C1182      H1192   1.083       .  S
C1193      C1194   1.406       .  A
C1193      C1198   1.407       .  A
C1194      C1195   1.394       .  A
C1194      H1207   1.083       .  S
C1195      C1196   1.402       .  A
C1195      H1208   1.084       .  S
C1196      C1197   1.408       .  A
C1196      C1199   1.484       .  S
C1197      C1198   1.401       .  A
C1197      H1209   1.081       .  S
C1198      H1210   1.083       .  S
C1199      C1200   1.346       .  D
C1199      H1211   1.086       .  S
C1200      C1201   1.485       .  S
C1200      H1212   1.085       .  S
C1201      C1202   1.403       .  A
C1201      C1206   1.407       .  A
C1202      C1203   1.400       .  A
C1202      H1213   1.083       .  S
C1203      C1204   1.407       .  A
C1203      H1214   1.083       .  S
C1204      C1205   1.405       .  A
C1205      C1206   1.394       .  A
C1205      H1215   1.083       .  S
C1206      H1216   1.082       .  S
C1217      C1218   1.407       .  A
C1217      C1222   1.406       .  A
C1218      C1219   1.399       .  A
C1218      H1231   1.083       .  S
C1219      C1220   1.404       .  A
C1219      H1232   1.083       .  S
C1220      C1221   1.410       .  A
C1220      C1223   1.493       .  S
C1221      C1222   1.399       .  A
C1221      H1233   1.080       .  S
C1222      H1234   1.083       .  S
C1223      C1224   1.349       .  D
C1223      H1235   1.084       .  S
C1224      C1225   1.492       .  S
C1224      H1236   1.084       .  S
C1225      C1226   1.403       .  A
C1225      C1230   1.411       .  A
C1226      C1227   1.395       .  A
C1226      H1237   1.083       .  S
C1227      C1228   1.405       .  A
C1227      H1238   1.083       .  S
C1228      C1229   1.406       .  A
C1229      C1230   1.404       .  A
C1229      H1239   1.083       .  S
C1230      H1240   1.080       .  S
C1241      C1242   1.406   1_545  A
C1241      C1246   1.406       .  A
C1242      C1243   1.401       .  A
C1242      H1255   1.083       .  S
C1243      C1244   1.404       .  A
C1243      H1256   1.083       .  S
C1244      C1245   1.407   1_565  A
C1244      C1247   1.490       .  S
C1245      C1246   1.399       .  A
C1245      H1257   1.082       .  S
C1246      H1258   1.083       .  S
C1247      C1248   1.350       .  D
C1247      H1259   1.085       .  S
C1248      C1249   1.491       .  S
C1248      H1260   1.085       .  S
C1249      C1250   1.405       .  A
C1249      C1254   1.407       .  A
C1250      C1251   1.400       .  A
C1250      H1261   1.083       .  S
C1251      C1252   1.406       .  A
C1251      H1262   1.083       .  S
C1252      C1253   1.408       .  A
C1253      C1254   1.400       .  A
C1253      H1263   1.083       .  S
C1254      H1264   1.081       .  S
C1265      C1266   1.405       .  A
C1265      C1270   1.407       .  A
C1266      C1267   1.396       .  A
C1266      H1279   1.083       .  S
C1267      C1268   1.403       .  A
C1267      H1280   1.083       .  S
C1268      C1269   1.408       .  A
C1268      C1271   1.488       .  S
C1269      C1270   1.401       .  A
C1269      H1281   1.080       .  S
C1270      H1282   1.083       .  S
C1271      C1272   1.348       .  D
C1271      H1283   1.085       .  S
C1272      C1273   1.488       .  S
C1272      H1284   1.084       .  S
C1273      C1274   1.404       .  A
C1273      C1278   1.408   1_565  A
C1274      C1275   1.400       .  A
C1274      H1285   1.083       .  S
C1275      C1276   1.405   1_565  A
C1275      H1286   1.083       .  S
C1276      C1277   1.404       .  A
C1277      C1278   1.397       .  A
C1277      H1287   1.083       .  S
C1278      H1288   1.082       .  S
C1289      C1290   1.411       .  A
C1289      C1294   1.412       .  A
C1290      C1291   1.397       .  A
C1290      H1303   1.081       .  S
C1291      C1292   1.398       .  A
C1291      H1304   1.084       .  S
C1292      C1293   1.402       .  A
C1292      C1295   1.475       .  S
C1293      C1294   1.400       .  A
C1293      H1305   1.083       .  S
C1294      H1306   1.081       .  S
C1295      C1296   1.343       .  D
C1295      H1307   1.086       .  S
C1296      C1297   1.482       .  S
C1296      H1308   1.087       .  S
C1297      C1298   1.403       .  A
C1297      C1302   1.405       .  A
C1298      C1299   1.399       .  A
C1298      H1309   1.083       .  S
C1299      C1300   1.405       .  A
C1299      H1310   1.083       .  S
C1300      C1301   1.406       .  A
C1301      C1302   1.398       .  A
C1301      H1311   1.083       .  S
C1302      H1312   1.083       .  S
C1313      C1314   1.405       .  A
C1313      C1318   1.405       .  A
C1314      C1315   1.399       .  A
C1314      H1327   1.083       .  S
C1315      C1316   1.404       .  A
C1315      H1328   1.083       .  S
C1316      C1317   1.407       .  A
C1316      C1319   1.485       .  S
C1317      C1318   1.397       .  A
C1317      H1329   1.082       .  S
C1318      H1330   1.083       .  S
C1319      C1320   1.348       .  D
C1319      H1331   1.085       .  S
C1320      C1321   1.486       .  S
C1320      H1332   1.086       .  S
C1321      C1322   1.404       .  A
C1321      C1326   1.407       .  A
C1322      C1323   1.399       .  A
C1322      H1333   1.083       .  S
C1323      C1324   1.406       .  A
C1323      H1334   1.083       .  S
C1324      C1325   1.407       .  A
C1325      C1326   1.397       .  A
C1325      H1335   1.083       .  S
C1326      H1336   1.081       .  S
C1337      C1338   1.406       .  A
C1337      C1342   1.405       .  A
C1338      C1339   1.398       .  A
C1338      H1351   1.083       .  S
C1339      C1340   1.402       .  A
C1339      H1352   1.083       .  S
C1340      C1341   1.405       .  A
C1340      C1343   1.480       .  S
C1341      C1342   1.398       .  A
C1341      H1353   1.083       .  S
C1342      H1354   1.083       .  S
C1343      C1344   1.345       .  D
C1343      H1355   1.086       .  S
C1344      C1345   1.481       .  S
C1344      H1356   1.087       .  S
C1345      C1346   1.402       .  A
C1345      C1350   1.404       .  A
C1346      C1347   1.399       .  A
C1346      H1357   1.083       .  S
C1347      C1348   1.408       .  A
C1347      H1358   1.082       .  S
C1348      C1349   1.408       .  A
C1349      C1350   1.398       .  A
C1349      H1359   1.083       .  S
C1350      H1360   1.083       .  S
C1361      C1362   1.405       .  A
C1361      C1366   1.407       .  A
C1362      C1363   1.396       .  A
C1362      H1375   1.083       .  S
C1363      C1364   1.403       .  A
C1363      H1376   1.083       .  S
C1364      C1365   1.409       .  A
C1364      C1367   1.489       .  S
C1365      C1366   1.403       .  A
C1365      H1377   1.081       .  S
C1366      H1378   1.083       .  S
C1367      C1368   1.348       .  D
C1367      H1379   1.086       .  S
C1368      C1369   1.489       .  S
C1368      H1380   1.085       .  S
C1369      C1370   1.403       .  A
C1369      C1374   1.408       .  A
C1370      C1371   1.400       .  A
C1370      H1381   1.083       .  S
C1371      C1372   1.407       .  A
C1371      H1382   1.083       .  S
C1372      C1373   1.407       .  A
C1373      C1374   1.399       .  A
C1373      H1383   1.083       .  S
C1374      H1384   1.082       .  S
C1385      C1386   1.407       .  A
C1385      C1390   1.406       .  A
C1386      C1387   1.400       .  A
C1386      H1399   1.083       .  S
C1387      C1388   1.403       .  A
C1387      H1400   1.083       .  S
C1388      C1389   1.405       .  A
C1388      C1391   1.484       .  S
C1389      C1390   1.395       .  A
C1389      H1401   1.082       .  S
C1390      H1402   1.083   1_655  S
C1391      C1392   1.347       .  D
C1391      H1403   1.086       .  S
C1392      C1393   1.482       .  S
C1392      H1404   1.086   1_655  S
C1393      C1394   1.402   1_655  A
C1393      C1398   1.406       .  A
C1394      C1395   1.396       .  A
C1394      H1405   1.083       .  S
C1395      C1396   1.406   1_455  A
C1395      H1406   1.083       .  S
C1396      C1397   1.408       .  A
C1397      C1398   1.400       .  A
C1397      H1407   1.083       .  S
C1398      H1408   1.082       .  S
C1409      C1410   1.406   1_455  A
C1409      C1414   1.407       .  A
C1410      C1411   1.397       .  A
C1410      H1423   1.083       .  S
C1411      C1412   1.403   1_655  A
C1411      H1424   1.083       .  S
C1412      C1413   1.408       .  A
C1412      C1415   1.487   1_455  S
C1413      C1414   1.400       .  A
C1413      H1425   1.081       .  S
C1414      H1426   1.083       .  S
C1415      C1416   1.348   1_655  D
C1415      H1427   1.085       .  S
C1416      C1417   1.488       .  S
C1416      H1428   1.085       .  S
C1417      C1418   1.404       .  A
C1417      C1422   1.407   1_455  A
C1418      C1419   1.400       .  A
C1418      H1429   1.083       .  S
C1419      C1420   1.406       .  A
C1419      H1430   1.083       .  S
C1420      C1421   1.405   1_455  A
C1421      C1422   1.398       .  A
C1421      H1431   1.083       .  S
C1422      H1432   1.082       .  S
