geometry optimzed in LAMMPS
_audit_creation_date              2020-11-30 
_audit_creation_method            'lammps2cif' 
_symmetry_space_group_name_H-M    'P1' 
_symmetry_Int_Tables_number       1 
_symmetry_cell_setting            triclinic 
loop_ 
_symmetry_equiv_pos_as_xyz 
  x,y,z 
_cell_length_a                    47.44199749 
_cell_length_b                    47.37256229871582 
_cell_length_c                    47.366407085685914 
_cell_angle_alpha                 90.01167696651325 
_cell_angle_beta                  89.99662748177559 
_cell_angle_gamma                 90.00524795874195 
loop_ 
_atom_site_label 
_atom_site_type_symbol 
_atom_site_fract_x 
_atom_site_fract_y 
_atom_site_fract_z 
_atom_site_charge 
N1          N  0.00417238  0.25904000  0.26038421    -0.01400
C2          C  0.00378607  0.23094560  0.26518795     0.01200
C3          C  0.00433026  0.21625350  0.24002362    -0.21700
C4          C  0.00505941  0.23621721  0.21886427    -0.21900
C5          C  0.00494870  0.26221411  0.23205461     0.01100
H6          H  0.00406527  0.19356439  0.23733634     0.14800
H7          H  0.00543467  0.23219980  0.19637299     0.14900
O8          O  0.99873518  0.41482437  0.44945902    -0.84500
O9          O  0.00061660  0.57528652  0.44807319    -0.84600
O10         O  0.95423013  0.49463029  0.41416888    -0.86300
O11         O  0.04524936  0.49458085  0.41460320    -0.85000
O12         O  0.07978562  0.49442034  0.44868383    -0.84600
O13         O  0.91932496  0.49537640  0.44786794    -0.86000
O14         O  0.00061165  0.54070765  0.41403423    -0.84500
O15         O  0.99930219  0.44887417  0.41490147    -0.84100
Zr16       Zr  0.99959860  0.49501190  0.43789875     2.84300
O17         O  0.02842402  0.52345370  0.46611460    -1.06000
O18         O  0.97050579  0.46699370  0.46630614    -1.06800
C19         C  0.99904914  0.42300352  0.42345707     1.08700
C20         C  0.00086935  0.56671257  0.42219439     1.08600
C21         C  0.92823944  0.49483538  0.42206687     1.11600
C22         C  0.07115773  0.49435429  0.42279885     1.09400
H23         H  0.95942467  0.53593228  0.45381306     0.34900
O24         O  0.97093465  0.52409937  0.46575902    -1.27000
H25         H  0.03944359  0.45441936  0.45491950     0.34600
O26         O  0.02785429  0.46644328  0.46659399    -1.28700
O27         O  0.99940768  0.57604177  0.54003548    -0.84400
O28         O  0.99895395  0.41576363  0.54151803    -0.85900
O29         O  0.91949032  0.54248741  0.49488165    -0.84500
O30         O  0.07999014  0.54115457  0.49401965    -0.84600
O31         O  0.07901770  0.44824935  0.49541540    -0.84300
O32         O  0.91857648  0.44989518  0.49407319    -0.84100
O33         O  0.95358975  0.49670827  0.57477643    -0.84500
O34         O  0.04475991  0.49497587  0.57507198    -0.83900
O35         O  0.91898391  0.49667046  0.54075233    -0.85000
O36         O  0.07958048  0.49422002  0.54129469    -0.84100
O37         O  0.95450578  0.57608443  0.49479045    -0.84500
O38         O  0.95291813  0.41562879  0.49458664    -0.84300
O39         O  0.04398733  0.41466556  0.49572995    -0.83900
O40         O  0.04561621  0.57539989  0.49368408    -0.84300
O41         O  0.99897187  0.54197125  0.57456734    -0.84600
O42         O  0.99927237  0.45039420  0.57549587    -0.86000
Zr43       Zr  0.99988619  0.55229029  0.49424111     2.83100
Zr44       Zr  0.99872957  0.43862531  0.49522453     2.83500
Zr45       Zr  0.94195491  0.49597015  0.49441680     2.84100
Zr46       Zr  0.05674051  0.49493000  0.49492893     2.83400
Zr47       Zr  0.99921555  0.49593663  0.55148876     2.84200
O48         O  0.02765611  0.46693334  0.52349919    -1.06500
O49         O  0.97089136  0.52435346  0.52276044    -1.06000
C50         C  0.99903082  0.56783659  0.56602769     1.08600
C51         C  0.99921994  0.42438674  0.56738962     1.11200
C52         C  0.92848905  0.56824249  0.49508604     1.08800
C53         C  0.07149012  0.56709286  0.49361602     1.09200
C54         C  0.07000851  0.42248404  0.49567232     1.08700
C55         C  0.92705481  0.42396385  0.49414471     1.08300
C56         C  0.92766922  0.49687281  0.56662874     1.08700
C57         C  0.07074293  0.49430129  0.56711500     1.08200
H58         H  0.95837354  0.45579362  0.53528291     0.34900
O59         O  0.97017321  0.46741800  0.52341420    -1.27600
H60         H  0.04009537  0.53585670  0.53495376     0.34900
O61         O  0.02835813  0.52406718  0.52318007    -1.29000
N62         N  0.99974893  0.72972417  0.73100243    -0.01400
C63         C  0.99985617  0.75785943  0.72645646     0.01200
C64         C  0.00030119  0.77228766  0.75177855    -0.21700
C65         C  0.00046975  0.75210068  0.77274826    -0.21900
C66         C  0.00012772  0.72624275  0.75929545     0.01100
H67         H  0.00050472  0.79494804  0.75469312     0.14800
H68         H  0.00081954  0.75588152  0.79528112     0.14900
N69         N  0.00665150  0.26110886  0.73111034    -0.01400
C70         C  0.00769606  0.26539703  0.75927724     0.01200
C71         C  0.00972469  0.24001595  0.77343914    -0.21700
C72         C  0.00993750  0.21924572  0.75306668    -0.21900
C73         C  0.00802496  0.23286609  0.72736937     0.01100
H74         H  0.01081340  0.23692900  0.79605373     0.14800
H75         H  0.01120775  0.19671260  0.75662187     0.14900
N76         N  0.00334201  0.73192432  0.26030748    -0.01400
C77         C  0.00484463  0.76013905  0.26420034     0.01200
C78         C  0.00598311  0.77392336  0.23854347    -0.21700
C79         C  0.00512265  0.75327921  0.21804551    -0.21900
C80         C  0.00348960  0.72779697  0.23208679     0.01100
H81         H  0.00721686  0.79647612  0.23509947     0.14800
H82         H  0.00554175  0.75651773  0.19543015     0.14900
O83         O  0.00003357  0.04332329  0.41752102    -0.84500
O84         O  0.99941494  0.04016683  0.57833943    -0.84600
O85         O  0.95325759  0.07569768  0.49730623    -0.86300
O86         O  0.04484063  0.07624613  0.49913438    -0.85000
O87         O  0.07935178  0.04220594  0.49852036    -0.84600
O88         O  0.91916838  0.04123837  0.49625227    -0.86000
O89         O  0.99949218  0.07479343  0.54430646    -0.84500
O90         O  0.99934049  0.07666276  0.45283811    -0.84100
Zr91       Zr  0.99920677  0.05242603  0.49806469     2.84300
O92         O  0.02757373  0.02365079  0.52637803    -1.06000
O93         O  0.97127290  0.02440164  0.46854655    -1.06800
C94         C  0.99967089  0.06900189  0.42672188     1.08700
C95         C  0.99966750  0.06618280  0.57012914     1.08600
C96         C  0.92739433  0.06723818  0.49655580     1.11600
C97         C  0.07080326  0.06809071  0.49910149     1.09400
H98         H  0.95856873  0.03498571  0.53786454     0.34900
O99         O  0.97052575  0.02346612  0.52604557    -1.27000
H100        H  0.04000637  0.03695857  0.45751866     0.34600
O101        O  0.02815924  0.02490253  0.46889878    -1.28700
O102        O  0.99885889  0.94772009  0.57638933    -0.84400
O103        O  0.00116910  0.95073162  0.41569360    -0.85900
O104        O  0.91890264  0.99356872  0.54174381    -0.84500
O105        O  0.07935137  0.99573923  0.54312363    -0.84600
O106        O  0.08016781  0.99605149  0.45184417    -0.84300
O107        O  0.91978894  0.99658000  0.45050507    -0.84100
O108        O  0.95413159  0.91500590  0.49520190    -0.84500
O109        O  0.04595424  0.91571986  0.49518104    -0.83900
O110        O  0.91969166  0.94913014  0.49547880    -0.85000
O111        O  0.08000389  0.95023208  0.49609896    -0.84100
O112        O  0.95254066  0.99306943  0.57671837    -0.84500
O113        O  0.95404933  0.99748792  0.41615195    -0.84300
O114        O  0.04653000  0.99631896  0.41688718    -0.83900
O115        O  0.04515019  0.99471437  0.57753849    -0.84300
O116        O  0.99931579  0.91445467  0.54101619    -0.84600
O117        O  0.00117989  0.91616662  0.44978504    -0.86000
Zr118      Zr  0.99904909  0.99443592  0.55428339     2.83100
Zr119      Zr  0.00009470  0.99661160  0.43951035     2.83500
Zr120      Zr  0.94274580  0.99528945  0.49635973     2.84100
Zr121      Zr  0.05634939  0.99599798  0.49732046     2.83400
Zr122      Zr  0.99987651  0.93874458  0.49582076     2.84200
O123        O  0.02839664  0.96783560  0.46797634    -1.06500
O124        O  0.97100632  0.96641631  0.52474217    -1.06000
C125        C  0.99897772  0.92204365  0.56714936     1.08600
C126        C  0.00157262  0.92473020  0.42396349     1.11200
C127        C  0.92679233  0.99286901  0.56777633     1.08800
C128        C  0.07103163  0.99530075  0.56902181     1.09200
C129        C  0.07228777  0.99603830  0.42579375     1.08700
C130        C  0.92814316  0.99736632  0.42461990     1.08300
C131        C  0.92817566  0.92322402  0.49518886     1.08700
C132        C  0.07180394  0.92425585  0.49532922     1.08200
H133        H  0.95981590  0.95571916  0.45525377     0.34900
O134        O  0.97141132  0.96737120  0.46730017    -1.27600
H135        H  0.03983708  0.95469244  0.53686851     0.34900
O136        O  0.02805161  0.96665319  0.52532812    -1.29000
N137        N  0.23482520  0.23103763  0.50075274    -0.01400
C138        C  0.23104030  0.25928570  0.50183924     0.01200
C139        C  0.25667822  0.27296329  0.50362554    -0.21700
C140        C  0.27705101  0.25220650  0.50361378    -0.21900
C141        C  0.26297595  0.22675428  0.50180534     0.01100
H142        H  0.26020771  0.29551844  0.50453319     0.14800
H143        H  0.29962941  0.25535922  0.50452519     0.14900
N144        N  0.76421321  0.23079755  0.48465140    -0.01400
C145        C  0.76817019  0.25896927  0.48252979     0.01200
C146        C  0.74268934  0.27266837  0.47930920    -0.21700
C147        C  0.72221781  0.25203362  0.47949260    -0.21900
C148        C  0.73608543  0.22662966  0.48281998     0.01100
H149        H  0.73931500  0.29519051  0.47747205     0.14800
H150        H  0.69969342  0.25525271  0.47780457     0.14900
N151        N  0.76448294  0.76002111  0.50132758    -0.01400
C152        C  0.76881523  0.73189849  0.50311780     0.01200
C153        C  0.74344726  0.71771985  0.50484717    -0.21700
C154        C  0.72265949  0.73803584  0.50407823    -0.21900
C155        C  0.73625331  0.76372071  0.50191317     0.01100
H156        H  0.74037680  0.69512402  0.50627046     0.14800
H157        H  0.70013947  0.73444484  0.50481459     0.14900
N158        N  0.23472616  0.76043326  0.49113463    -0.01400
C159        C  0.23072585  0.73219038  0.49172546     0.01200
C160        C  0.25629070  0.71828053  0.49222708    -0.21700
C161        C  0.27683303  0.73885711  0.49195652    -0.21900
C162        C  0.26292850  0.76444691  0.49128800     0.01100
H163        H  0.25964309  0.69569133  0.49290960     0.14800
H164        H  0.29939603  0.73551278  0.49243027     0.14900
N165        N  0.73577867  0.99925928  0.26041380    -0.01400
C166        C  0.76390142  0.00109365  0.26454311     0.01200
C167        C  0.77787283  0.00263293  0.23902008    -0.21700
C168        C  0.75745981  0.00171193  0.21834659    -0.21900
C169        C  0.73191736  0.99963482  0.23215279     0.01100
H170        H  0.80041081  0.00410536  0.23578228     0.14800
H171        H  0.76089021  0.00236362  0.19576485     0.14900
O172        O  0.45301213  0.07561841  0.49503883    -0.84500
O173        O  0.45392807  0.91482778  0.49537045    -0.84600
O174        O  0.41966065  0.99541329  0.44908642    -0.86300
O175        O  0.41972508  0.99444566  0.54119232    -0.85000
O176        O  0.45402856  0.99465684  0.57546580    -0.84600
O177        O  0.45390295  0.99541195  0.41475285    -0.86000
O178        O  0.41984189  0.94936276  0.49556204    -0.84500
O179        O  0.41929304  0.04073413  0.49480071    -0.84100
Zr180      Zr  0.44298448  0.99515389  0.49514426     2.84300
O181        O  0.47159234  0.96659677  0.52350595    -1.06000
O182        O  0.47114531  0.02398172  0.46666087    -1.06800
C183        C  0.42722523  0.06677612  0.49482292     1.08700
C184        C  0.42805401  0.92342111  0.49559124     1.08600
C185        C  0.42800658  0.99547169  0.42312468     1.11600
C186        C  0.42810576  0.99434863  0.56713517     1.09400
H187        H  0.45965740  0.95476640  0.45467261     0.34900
O188        O  0.47137576  0.96652458  0.46649411    -1.27000
H189        H  0.45929888  0.03564278  0.53570360     0.34600
O190        O  0.47110182  0.02402520  0.52382632    -1.28700
O191        O  0.54664630  0.91546868  0.49480399    -0.84400
O192        O  0.54548727  0.07611958  0.49493950    -0.85900
O193        O  0.50066256  0.94983780  0.41476101    -0.84500
O194        O  0.49965003  0.94954302  0.57521108    -0.84600
O195        O  0.50070605  0.04099897  0.57537964    -0.84300
O196        O  0.49876441  0.04125095  0.41490798    -0.84100
O197        O  0.57986064  0.99489999  0.44899027    -0.84500
O198        O  0.58006309  0.99657289  0.54091306    -0.83900
O199        O  0.54557853  0.99495850  0.41471154    -0.85000
O200        O  0.54589545  0.99599352  0.57530985    -0.84100
O201        O  0.50094134  0.91508674  0.44866770    -0.84500
O202        O  0.49832464  0.07586391  0.44897034    -0.84300
O203        O  0.50044743  0.07577261  0.54149213    -0.83900
O204        O  0.49970865  0.91491218  0.54116155    -0.84300
O205        O  0.58036472  0.95036626  0.49484881    -0.84600
O206        O  0.57962986  0.04164649  0.49482855    -0.86000
Zr207      Zr  0.50013473  0.93801457  0.49497904     2.83100
Zr208      Zr  0.49940000  0.05284102  0.49518304     2.83500
Zr209      Zr  0.49973274  0.99548827  0.43820775     2.84100
Zr210      Zr  0.49991126  0.99532829  0.55197231     2.83400
Zr211      Zr  0.55657110  0.99579936  0.49499506     2.84200
O212        O  0.52807695  0.02424298  0.52355314    -1.06500
O213        O  0.52836253  0.96696569  0.46653588    -1.06000
C214        C  0.57242630  0.92434248  0.49479348     1.08600
C215        C  0.57136376  0.06757287  0.49480071     1.11200
C216        C  0.50108416  0.92385388  0.42283008     1.08800
C217        C  0.49954100  0.92358078  0.56703001     1.09200
C218        C  0.50092377  0.06699017  0.56732202     1.08700
C219        C  0.49823333  0.06720949  0.42309704     1.08300
C220        C  0.57148862  0.99465677  0.42305163     1.08700
C221        C  0.57178806  0.99652059  0.56688744     1.08200
H222        H  0.53978132  0.03617765  0.45459278     0.34900
O223        O  0.52810418  0.02444122  0.46647319    -1.27600
H224        H  0.54043072  0.95515620  0.53537967     0.34900
O225        O  0.52855697  0.96677255  0.52358109    -1.29000
N226        N  0.26493495  0.00069381  0.73097325    -0.01400
C227        C  0.23680128  0.00232719  0.72682121     0.01200
C228        C  0.22283201  0.00461546  0.75228034    -0.21700
C229        C  0.24325026  0.00439212  0.77295455    -0.21900
C230        C  0.26880373  0.00196712  0.75922209     0.01100
H231        H  0.20028877  0.00607600  0.75548261     0.14800
H232        H  0.23981433  0.00568555  0.79550816     0.14900
N233        N  0.73430532  0.99571446  0.73153633    -0.01400
C234        C  0.76253879  0.99519170  0.72784420     0.01200
C235        C  0.77619165  0.99506065  0.75358371    -0.21700
C236        C  0.75544324  0.99550861  0.77394376    -0.21900
C237        C  0.73003198  0.99587817  0.75974225     0.01100
H238        H  0.79871891  0.99457494  0.75716897     0.14800
H239        H  0.75855846  0.99547712  0.79658108     0.14900
N240        N  0.26369542  0.99455111  0.26045512    -0.01400
C241        C  0.23550100  0.99522073  0.26448464     0.01200
C242        C  0.22159218  0.99526938  0.23887473    -0.21700
C243        C  0.24213360  0.99458168  0.21828438    -0.21900
C244        C  0.26769136  0.99413190  0.23221903     0.01100
H245        H  0.19902719  0.99559882  0.23552178     0.14800
H246        H  0.23877657  0.99428104  0.19568443     0.14900
O247        O  0.57997776  0.99522921  0.04280802    -0.84500
O248        O  0.41939969  0.99288922  0.04304504    -0.84600
O249        O  0.49983558  0.03922414  0.07792994    -0.86300
O250        O  0.49974565  0.94771016  0.07608591    -0.85000
O251        O  0.49962843  0.91400176  0.04118921    -0.84600
O252        O  0.49990669  0.07421885  0.04433217    -0.86000
O253        O  0.45416181  0.99220671  0.07688848    -0.84500
O254        O  0.54535562  0.99444640  0.07679050    -0.84100
Zr255      Zr  0.49970615  0.99394500  0.05345315     2.84300
O256        O  0.47105277  0.96601939  0.02459077    -1.06000
O257        O  0.52825132  0.02308352  0.02568153    -1.06800
C258        C  0.57128593  0.99494495  0.06866165     1.08700
C259        C  0.42820280  0.99196790  0.06885945     1.08600
C260        C  0.50000003  0.06530580  0.07009225     1.11600
C261        C  0.49966561  0.92193343  0.06727897     1.09400
H262        H  0.45906940  0.03449440  0.03796406     0.34900
O263        O  0.47077085  0.02299986  0.02586952    -1.27000
H264        H  0.54025238  0.95403474  0.03622915     0.34600
O265        O  0.52851802  0.96600861  0.02464986    -1.28700
O266        O  0.41928814  0.99624031  0.95040460    -0.84400
O267        O  0.57990414  0.99586456  0.95034941    -0.85900
O268        O  0.45388918  0.07527115  0.99788571    -0.84500
O269        O  0.45411259  0.91471851  0.99598563    -0.84600
O270        O  0.54529093  0.91489484  0.99464817    -0.84300
O271        O  0.54493681  0.07552073  0.99856734    -0.84100
O272        O  0.49896606  0.04257629  0.91738188    -0.84500
O273        O  0.50026777  0.95076061  0.91555320    -0.83900
O274        O  0.49897810  0.07622609  0.95234602    -0.85000
O275        O  0.50026002  0.91582767  0.94922786    -0.84100
O276        O  0.41929960  0.04124259  0.99733049    -0.84500
O277        O  0.57972518  0.04171607  0.99772111    -0.84300
O278        O  0.57989867  0.94890687  0.99531130    -0.83900
O279        O  0.41938632  0.94859871  0.99642745    -0.84300
O280        O  0.45388705  0.99704119  0.91639275    -0.84600
O281        O  0.54517321  0.99652511  0.91647048    -0.86000
Zr282      Zr  0.44223792  0.99492897  0.99671504     2.83100
Zr283      Zr  0.55696277  0.99525998  0.99659543     2.83500
Zr284      Zr  0.49945897  0.05189687  0.99783499     2.84100
Zr285      Zr  0.49970296  0.93824382  0.99562260     2.83400
Zr286      Zr  0.49951377  0.99620344  0.93984803     2.84200
O287        O  0.52824053  0.96726354  0.96765988    -1.06500
O288        O  0.47083572  0.02404795  0.96880468    -1.06000
C289        C  0.42794588  0.99695682  0.92453387     1.08600
C290        C  0.57113384  0.99628457  0.92452458     1.11200
C291        C  0.42797205  0.06711359  0.99760636     1.08800
C292        C  0.42814817  0.92276477  0.99631075     1.09200
C293        C  0.57121626  0.92303527  0.99467598     1.08700
C294        C  0.57091303  0.06754335  0.99837237     1.08300
C295        C  0.49882925  0.06834603  0.92624526     1.08700
C296        C  0.50050043  0.92468434  0.92345862     1.08200
H297        H  0.53983429  0.03636915  0.95705463     0.34900
O298        O  0.52822504  0.02428367  0.96864714    -1.27600
H299        H  0.45921131  0.95533577  0.95552839     0.34900
O300        O  0.47085779  0.96695686  0.96755617    -1.29000
N301        N  0.49755202  0.23129118  0.23083949    -0.01400
C302        C  0.49637263  0.25936088  0.22593210     0.01200
C303        C  0.49510578  0.27403529  0.25109237    -0.21700
C304        C  0.49552771  0.25410811  0.27230581    -0.21900
C305        C  0.49703188  0.22813796  0.25917219     0.01100
H306        H  0.49393174  0.29669803  0.25374285     0.14800
H307        H  0.49474883  0.25812884  0.29478637     0.14900
N308        N  0.50040587  0.75896883  0.23133468    -0.01400
C309        C  0.50019206  0.73071684  0.22750481     0.01200
C310        C  0.50028931  0.71693502  0.25318493    -0.21700
C311        C  0.50056230  0.73764210  0.27363814    -0.21900
C312        C  0.50061767  0.76314261  0.25953429     0.01100
H313        H  0.50021218  0.69435594  0.25667240     0.14800
H314        H  0.50073149  0.73443897  0.29626146     0.14900
N315        N  0.50170178  0.76086762  0.76037134    -0.01400
C316        C  0.50141357  0.73270503  0.76471942     0.01200
C317        C  0.50068722  0.71843387  0.73932042    -0.21700
C318        C  0.50048368  0.73874307  0.71848972    -0.21900
C319        C  0.50110237  0.76450499  0.73210627     0.01100
H320        H  0.50019766  0.69579526  0.73627147     0.14800
H321        H  0.49979106  0.73511032  0.69594062     0.14900
N322        N  0.50194094  0.22981478  0.76073026    -0.01400
C323        C  0.50257329  0.25813050  0.76400545     0.01200
C324        C  0.50327646  0.27141059  0.73807732    -0.21700
C325        C  0.50309115  0.25031898  0.71803245    -0.21900
C326        C  0.50228861  0.22509797  0.73260857     0.01100
H327        H  0.50391151  0.29391019  0.73416082     0.14800
H328        H  0.50356986  0.25308272  0.69535529     0.14900
O329        O  0.00050028  0.41472759  0.04238144    -0.84500
O330        O  0.99842810  0.57543753  0.04326872    -0.84600
O331        O  0.04487897  0.49483682  0.07722491    -0.86300
O332        O  0.95297851  0.49491444  0.07601786    -0.85000
O333        O  0.91917045  0.49472586  0.04125405    -0.84600
O334        O  0.07950779  0.49503520  0.04329356    -0.86000
O335        O  0.99828419  0.54052053  0.07700541    -0.84500
O336        O  0.00000722  0.44925027  0.07653878    -0.84100
Zr337      Zr  0.99919838  0.49497403  0.05329069     2.84300
O338        O  0.97086408  0.52356115  0.02470104    -1.06000
O339        O  0.02808505  0.46653251  0.02511198    -1.06800
C340        C  0.00049028  0.42332023  0.06829188     1.08700
C341        C  0.99809634  0.56655557  0.06907326     1.08600
C342        C  0.07088157  0.49482550  0.06913745     1.11600
C343        C  0.92719137  0.49483679  0.06729859     1.09400
H344        H  0.03945433  0.53575211  0.03751357     0.34900
O345        O  0.02786310  0.52406317  0.02550002    -1.27000
H346        H  0.95926252  0.45427923  0.03609848     0.34600
O347        O  0.97112505  0.46612551  0.02451403    -1.28700
O348        O  0.00003480  0.57608302  0.95070624    -0.84400
O349        O  0.00030788  0.41530870  0.94959448    -0.85900
O350        O  0.07965112  0.54132381  0.99716315    -0.84500
O351        O  0.91922303  0.54021145  0.99610771    -0.84600
O352        O  0.91994199  0.44906287  0.99426069    -0.84300
O353        O  0.08018997  0.44984754  0.99736411    -0.84100
O354        O  0.04692788  0.49652238  0.91687955    -0.84500
O355        O  0.95516652  0.49482907  0.91542888    -0.83900
O356        O  0.08073557  0.49632596  0.95162538    -0.85000
O357        O  0.92047362  0.49435614  0.94929165    -0.84100
O358        O  0.04558296  0.57588512  0.99698789    -0.84500
O359        O  0.04641190  0.41502026  0.99655737    -0.84300
O360        O  0.95399561  0.41452078  0.99468910    -0.83900
O361        O  0.95286729  0.57516373  0.99710376    -0.84300
O362        O  0.00087134  0.54157102  0.91655024    -0.84600
O363        O  0.00074322  0.45027162  0.91589363    -0.86000
Zr364      Zr  0.99942815  0.55272254  0.99681904     2.83100
Zr365      Zr  0.00012613  0.43782516  0.99610797     2.83500
Zr366      Zr  0.05661372  0.49551306  0.99715227     2.84100
Zr367      Zr  0.94311644  0.49484220  0.99562620     2.83400
Zr368      Zr  0.00065807  0.49572789  0.93959551     2.84200
O369        O  0.97205415  0.46661619  0.96737344    -1.06500
O370        O  0.02850705  0.52435557  0.96857030    -1.06000
C371        C  0.00056610  0.56750144  0.92480166     1.08600
C372        C  0.00052287  0.42424858  0.92381591     1.11200
C373        C  0.07143623  0.56725766  0.99706668     1.08800
C374        C  0.92710557  0.56624339  0.99678389     1.09200
C375        C  0.92813006  0.42311396  0.99402468     1.08700
C376        C  0.07219510  0.42382305  0.99701701     1.08300
C377        C  0.07272584  0.49661511  0.92558241     1.08700
C378        C  0.92915854  0.49432309  0.92345563     1.08200
H379        H  0.04086833  0.45527730  0.95629960     0.34900
O380        O  0.02887031  0.46681323  0.96805625    -1.27600
H381        H  0.95973769  0.53574156  0.95576075     0.34900
O382        O  0.97148610  0.52408719  0.96764751    -1.29000
N383        N  0.76390708  0.50169906  0.23049549    -0.01400
C384        C  0.73573997  0.50400962  0.22701431     0.01200
C385        C  0.72253933  0.50714844  0.25280620    -0.21700
C386        C  0.74351750  0.50671447  0.27295037    -0.21900
C387        C  0.76860671  0.50333558  0.25857033     0.01100
H388        H  0.70014466  0.50933922  0.25658035     0.14800
H389        H  0.74074260  0.50848240  0.29556270     0.14900
N390        N  0.23589133  0.49304884  0.23099619    -0.01400
C391        C  0.26403313  0.49245712  0.22666966     0.01200
C392        C  0.27820375  0.49105814  0.25209005    -0.21700
C393        C  0.25787574  0.49076433  0.27288689    -0.21900
C394        C  0.23218508  0.49200055  0.25925378     0.01100
H395        H  0.30079459  0.49028971  0.25518189     0.14800
H396        H  0.26144890  0.48970316  0.29543087     0.14900
N397        N  0.23421574  0.49488998  0.76020303    -0.01400
C398        C  0.23006214  0.49411730  0.73198514     0.01200
C399        C  0.25555861  0.49412328  0.71792477    -0.21700
C400        C  0.27620929  0.49495697  0.73838576    -0.21900
C401        C  0.26243000  0.49543193  0.76405394     0.01100
H402        H  0.25879733  0.49364615  0.69530989     0.14800
H403        H  0.29875556  0.49527365  0.73490741     0.14900
N404        N  0.76532651  0.48965716  0.76034180    -0.01400
C405        C  0.73708927  0.48907604  0.76405978     0.01200
C406        C  0.72340512  0.48954556  0.73834450    -0.21700
C407        C  0.74411741  0.49048320  0.71797717    -0.21900
C408        C  0.76954496  0.49053980  0.73214359     0.01100
H409        H  0.70086933  0.48939070  0.73478502     0.14800
H410        H  0.74096664  0.49122427  0.69535724     0.14900
N411        N  0.26447668  0.25958338  0.98885405    -0.01400
C412        C  0.26882677  0.23141960  0.98738366     0.01200
C413        C  0.24350099  0.21722884  0.98522672    -0.21700
C414        C  0.22270912  0.23752791  0.98540289    -0.21900
C415        C  0.23624028  0.26323469  0.98765543     0.01100
H416        H  0.24045676  0.19461873  0.98396070     0.14800
H417        H  0.20020814  0.23391031  0.98428938     0.14900
O418        O  0.49827840  0.44899915  0.07481166    -0.84500
O419        O  0.50046485  0.44942177  0.91409482    -0.84600
O420        O  0.45322051  0.41556618  0.99447527    -0.86300
O421        O  0.54514232  0.41521594  0.99418367    -0.85000
O422        O  0.57958952  0.44934213  0.99458597    -0.84600
O423        O  0.41916730  0.45006511  0.99440759    -0.86000
O424        O  0.50032540  0.41545351  0.94878424    -0.84500
O425        O  0.49809192  0.41516961  0.03997469    -0.84100
Zr426      Zr  0.49930238  0.43875824  0.99446898     2.84300
O427        O  0.52798123  0.46709922  0.96605759    -1.06000
O428        O  0.47095056  0.46726249  0.02306055    -1.06800
C429        C  0.49777531  0.42316559  0.06597968     1.08700
C430        C  0.50070552  0.42358166  0.92282056     1.08600
C431        C  0.42734197  0.42405200  0.99451871     1.11600
C432        C  0.57108676  0.42347375  0.99419981     1.09400
H433        H  0.45922648  0.45543484  0.95374273     0.34900
O434        O  0.47102923  0.46715574  0.96551827    -1.27000
H435        H  0.53963149  0.45489206  0.03520969     0.34600
O436        O  0.52797690  0.46677788  0.02345883    -1.28700
O437        O  0.49984987  0.54185394  0.91412791    -0.84400
O438        O  0.50028770  0.54177408  0.07490828    -0.85900
O439        O  0.41968543  0.49683340  0.94856922    -0.84500
O440        O  0.57997257  0.49380567  0.94915171    -0.84600
O441        O  0.57963169  0.49611845  0.04065312    -0.84300
O442        O  0.41931599  0.49517585  0.03983425    -0.84100
O443        O  0.45449727  0.57618256  0.99432039    -0.84500
O444        O  0.54639042  0.57552561  0.99508297    -0.83900
O445        O  0.42001444  0.54208278  0.99405809    -0.85000
O446        O  0.58040589  0.54099552  0.99507753    -0.84100
O447        O  0.45369019  0.49663196  0.91395961    -0.84500
O448        O  0.45303672  0.49513498  0.07472499    -0.84300
O449        O  0.54555831  0.49598296  0.07520440    -0.83900
O450        O  0.54616961  0.49421889  0.91434053    -0.84300
O451        O  0.49981463  0.57576296  0.94889349    -0.84600
O452        O  0.50111068  0.57577440  0.04024401    -0.86000
Zr453      Zr  0.49988798  0.49563986  0.93711977     2.83100
Zr454      Zr  0.49943374  0.49545383  0.05199554     2.83500
Zr455      Zr  0.44293203  0.49590922  0.99428737     2.84100
Zr456      Zr  0.55650110  0.49530695  0.99480775     2.83400
Zr457      Zr  0.50022827  0.55243316  0.99457038     2.84200
O458        O  0.52817699  0.52380019  0.02340769    -1.06500
O459        O  0.47162306  0.52426687  0.96582186    -1.06000
C460        C  0.49970891  0.56767668  0.92291076     1.08600
C461        C  0.50099119  0.56762438  0.06620674     1.11200
C462        C  0.42783966  0.49705641  0.92261020     1.08800
C463        C  0.57194467  0.49350561  0.92314193     1.09200
C464        C  0.57141910  0.49633784  0.06660563     1.08700
C465        C  0.42726010  0.49492509  0.06586051     1.08300
C466        C  0.42853769  0.56796856  0.99413911     1.08700
C467        C  0.57225878  0.56700031  0.99526687     1.08200
H468        H  0.45956150  0.53617415  0.03488885     0.34900
O469        O  0.47130348  0.52429788  0.02321014    -1.27600
H470        H  0.54060644  0.53573081  0.95410175     0.34900
O471        O  0.52866683  0.52404526  0.96577231    -1.29000
N472        N  0.73541116  0.73100153  0.99980600    -0.01400
C473        C  0.76358931  0.72715651  0.00137500     0.01200
C474        C  0.77729929  0.75282250  0.00293014    -0.21700
C475        C  0.75664308  0.77327971  0.00228417    -0.21900
C476        C  0.73122369  0.75920979  0.00036285     0.01100
H477        H  0.79980719  0.75630005  0.00430569     0.14800
H478        H  0.75983310  0.79589197  0.00303134     0.14900
N479        N  0.26422245  0.73039496  0.99996512    -0.01400
C480        C  0.26814744  0.75863969  0.99966973     0.01200
C481        C  0.24255785  0.77251302  0.99936556    -0.21700
C482        C  0.22206281  0.75188747  0.99947075    -0.21900
C483        C  0.23604551  0.72633205  0.99984716     0.01100
H484        H  0.23915884  0.79510239  0.99899417     0.14800
H485        H  0.19948827  0.75517782  0.99915492     0.14900
N486        N  0.73450896  0.26040883  0.99087196    -0.01400
C487        C  0.76278985  0.26385148  0.99062989     0.01200
C488        C  0.77616004  0.23799814  0.99193312    -0.21700
C489        C  0.75519060  0.21787240  0.99303648    -0.21900
C490        C  0.72991427  0.23229310  0.99236186     0.01100
H491        H  0.79865090  0.23418435  0.99222296     0.14800
H492        H  0.75807616  0.19524708  0.99435662     0.14900
C493        C  0.67470161  0.32157036  0.99012165     0.19100
C494        C  0.68098612  0.34884782  0.99972163    -0.10100
C495        C  0.65991732  0.36952499  0.00054035    -0.10900
C496        C  0.63245149  0.36303454  0.99176252     0.20600
C497        C  0.62622569  0.33582264  0.98196700    -0.12900
C498        C  0.64728499  0.31514909  0.98115794    -0.11200
C499        C  0.61066513  0.38421949  0.99286721     0.01600
C500        C  0.59246290  0.40200201  0.99364674    -0.31200
C501        C  0.69619528  0.30005162  0.98994770     0.03000
C502        C  0.71395950  0.28180649  0.99024564    -0.32900
H503        H  0.70209690  0.35407018  0.00671288     0.14000
H504        H  0.66500322  0.39049882  0.00811263     0.13800
H505        H  0.60508994  0.33056409  0.97508103     0.13700
H506        H  0.64216121  0.29414145  0.97370679     0.12700
C507        C  0.32500214  0.67012785  0.99860008     0.19100
C508        C  0.31788301  0.64145605  0.00035005    -0.10100
C509        C  0.33896941  0.62079923  0.99913730    -0.10900
C510        C  0.36730202  0.62868396  0.99615314     0.20600
C511        C  0.37441349  0.65735323  0.99445696    -0.12900
C512        C  0.35333476  0.67800378  0.99567343    -0.11200
C513        C  0.38904847  0.60741187  0.99498578     0.01600
C514        C  0.40718377  0.58952430  0.99434266    -0.31200
C515        C  0.30328709  0.69144113  0.99949508     0.03000
C516        C  0.28523236  0.70941726  0.99984615    -0.32900
H517        H  0.29606355  0.63508226  0.00258917     0.14000
H518        H  0.33319046  0.59871503  0.00050641     0.13800
H519        H  0.39622602  0.66373256  0.99218102     0.13700
H520        H  0.35911493  0.70008607  0.99427314     0.12700
C521        C  0.63354823  0.62788680  0.99652942     0.19100
C522        C  0.62591014  0.65647418  0.99598812    -0.10100
C523        C  0.64669639  0.67747423  0.99628710    -0.10900
C524        C  0.67528832  0.67004923  0.99712313     0.20600
C525        C  0.68294786  0.64146664  0.99769403    -0.12900
C526        C  0.66215309  0.62045825  0.99739708    -0.11200
C527        C  0.69669813  0.69171828  0.99762984     0.01600
C528        C  0.71458492  0.70986627  0.99844661    -0.31200
C529        C  0.61205015  0.60626677  0.99611263     0.03000
C530        C  0.59390860  0.58833368  0.99570280    -0.32900
H531        H  0.60389867  0.66252457  0.99532615     0.14000
H532        H  0.64047761  0.69947692  0.99588829     0.13800
H533        H  0.70496595  0.63543357  0.99838945     0.13700
H534        H  0.66837241  0.59845855  0.99783298     0.12700
C535        C  0.36621875  0.36288483  0.99446766     0.19100
C536        C  0.37388383  0.33430696  0.99351738    -0.10100
C537        C  0.35310406  0.31328306  0.99297810    -0.10900
C538        C  0.32448009  0.32065831  0.99338643     0.20600
C539        C  0.31680490  0.34922651  0.99446576    -0.12900
C540        C  0.33758848  0.37025374  0.99500701    -0.11200
C541        C  0.30305111  0.29898041  0.99227254     0.01600
C542        C  0.28519339  0.28080696  0.99088410    -0.31200
C543        C  0.38768642  0.38457839  0.99464355     0.03000
C544        C  0.40573390  0.40263434  0.99462322    -0.32900
H545        H  0.39590844  0.32828384  0.99307559     0.14000
H546        H  0.35935324  0.29130261  0.99210691     0.13800
H547        H  0.29477427  0.35524448  0.99475249     0.13700
H548        H  0.33133519  0.39223628  0.99572631     0.12700
C549        C  0.63713617  0.48988461  0.86712673     0.19100
C550        C  0.63616573  0.47279200  0.84302029    -0.10100
C551        C  0.65919823  0.47186009  0.82462271    -0.10900
C552        C  0.68335874  0.48794611  0.83025624     0.20600
C553        C  0.68442779  0.50489970  0.85446378    -0.12900
C554        C  0.66136887  0.50583265  0.87288310    -0.11200
C555        C  0.70613583  0.48818096  0.81017426     0.01600
C556        C  0.72245991  0.48850920  0.79067324    -0.31200
C557        C  0.61330109  0.49112753  0.88591778     0.03000
C558        C  0.59385593  0.49225297  0.90228546    -0.32900
H559        H  0.61756055  0.46037631  0.83834569     0.14000
H560        H  0.65804104  0.45887215  0.80582375     0.13800
H561        H  0.70288685  0.51761198  0.85890249     0.13700
H562        H  0.66234254  0.51912737  0.89147134     0.12700
C563        C  0.36174601  0.49874326  0.86758399     0.19100
C564        C  0.34270502  0.47610830  0.86788582    -0.10100
C565        C  0.31938783  0.47611919  0.84977624    -0.10900
C566        C  0.31493769  0.49883089  0.83136261     0.20600
C567        C  0.33370436  0.52169258  0.83143556    -0.12900
C568        C  0.35702741  0.52166656  0.84951134    -0.11200
C569        C  0.29270546  0.49769439  0.81067684     0.01600
C570        C  0.27686100  0.49663658  0.79079082    -0.31200
C571        C  0.38612192  0.49835102  0.88573310     0.03000
C572        C  0.40591864  0.49779366  0.90171772    -0.32900
H573        H  0.34609529  0.45830454  0.88183209     0.14000
H574        H  0.30518638  0.45820876  0.84973191     0.13800
H575        H  0.33062940  0.53925116  0.81710744     0.13700
H576        H  0.37154870  0.53931554  0.84913363     0.12700
C577        C  0.36143084  0.49422608  0.12127061     0.19100
C578        C  0.34593456  0.46940457  0.12562508    -0.10100
C579        C  0.32294601  0.46937479  0.14415756    -0.10900
C580        C  0.31529181  0.49419143  0.15833021     0.20600
C581        C  0.33050228  0.51910511  0.15359612    -0.12900
C582        C  0.35347543  0.51913349  0.13508637    -0.11200
C583        C  0.29353576  0.49361395  0.17952804     0.01600
C584        C  0.27804486  0.49312632  0.19970639    -0.31200
C585        C  0.38550024  0.49418169  0.10271794     0.03000
C586        C  0.40520080  0.49443948  0.08660959    -0.32900
H587        H  0.35183392  0.45003555  0.11499060     0.14000
H588        H  0.31151288  0.44992352  0.14784966     0.13800
H589        H  0.32495298  0.53835331  0.16463412     0.13700
H590        H  0.36523735  0.53846497  0.13182379     0.12700
C591        C  0.68180626  0.50179218  0.16083575     0.19100
C592        C  0.68366309  0.48539359  0.13628556    -0.10100
C593        C  0.66086015  0.48419790  0.11754028    -0.10900
C594        C  0.63609862  0.49931296  0.12332431     0.20600
C595        C  0.63434573  0.51581924  0.14778883    -0.12900
C596        C  0.65711806  0.51703836  0.16648291    -0.11200
C597        C  0.61254884  0.49798586  0.10415785     0.01600
C598        C  0.59322143  0.49709639  0.08762268    -0.31200
C599        C  0.70447204  0.50217120  0.18106387     0.03000
C600        C  0.72077903  0.50285671  0.20058227    -0.32900
H601        H  0.70256974  0.47338758  0.13177836     0.14000
H602        H  0.66246871  0.47139786  0.09865182     0.13800
H603        H  0.61535150  0.52762234  0.15247398     0.13700
H604        H  0.65538135  0.52965845  0.18548654     0.12700
C605        C  0.86173851  0.62216258  0.99940360     0.19100
C606        C  0.86168890  0.64437796  0.01891121    -0.10100
C607        C  0.83896947  0.66314663  0.01990886    -0.10900
C608        C  0.81612373  0.65980109  0.00144588     0.20600
C609        C  0.81597555  0.63737709  0.98214909    -0.12900
C610        C  0.83872286  0.61855790  0.98116885    -0.11200
C611        C  0.79393813  0.68055229  0.00126338     0.01600
C612        C  0.77806934  0.70043713  0.00123806    -0.31200
C613        C  0.88544496  0.60319836  0.99808279     0.03000
C614        C  0.90501235  0.58694929  0.99730592    -0.32900
H615        H  0.87932062  0.64734998  0.03314278     0.14000
H616        H  0.83941363  0.68052749  0.03477724     0.13800
H617        H  0.79853041  0.63469768  0.96763561     0.13700
H618        H  0.83850313  0.60140952  0.96603376     0.12700
C619        C  0.81590993  0.33092877  0.98905416     0.19100
C620        C  0.83435900  0.33260887  0.96598962    -0.10100
C621        C  0.85749200  0.35093235  0.96681261    -0.10900
C622        C  0.86236667  0.36763018  0.99074416     0.20600
C623        C  0.84366566  0.36628864  0.01362743    -0.12900
C624        C  0.82053577  0.34794684  0.01281091    -0.11200
C625        C  0.88655588  0.38604055  0.99188846     0.01600
C626        C  0.90624590  0.40215940  0.99291652    -0.31200
C627        C  0.79371969  0.31013080  0.98919082     0.03000
C628        C  0.77766368  0.29037495  0.98967068    -0.32900
H629        H  0.83116319  0.31937539  0.94760677     0.14000
H630        H  0.87174480  0.35182259  0.94896211     0.13800
H631        H  0.84716355  0.37914645  0.03221878     0.13700
H632        H  0.80658710  0.34665881  0.03087569     0.12700
C633        C  0.18356977  0.65922053  0.99749371     0.19100
C634        C  0.16220425  0.66258746  0.97734474    -0.10100
C635        C  0.13905431  0.64435013  0.97712599    -0.10900
C636        C  0.13710813  0.62266446  0.99710166     0.20600
C637        C  0.15865607  0.61901511  0.01703887    -0.12900
C638        C  0.18183371  0.63730960  0.01728038    -0.11200
C639        C  0.11298345  0.60424897  0.99716662     0.01600
C640        C  0.09329055  0.58816779  0.99713308    -0.31200
C641        C  0.20599671  0.67961987  0.99887787     0.03000
C642        C  0.22183318  0.69949777  0.99956495    -0.32900
H643        H  0.16321569  0.67961448  0.96210574     0.14000
H644        H  0.12255637  0.64733759  0.96159517     0.13800
H645        H  0.15737745  0.60225864  0.03255095     0.13700
H646        H  0.19810423  0.63465892  0.03310683     0.12700
C647        C  0.13671119  0.36685993  0.99516693     0.19100
C648        C  0.13170767  0.33773478  0.99548093    -0.10100
C649        C  0.15429005  0.31882863  0.99412191    -0.10900
C650        C  0.18202833  0.32890396  0.99243653     0.20600
C651        C  0.18708668  0.35803624  0.99217636    -0.12900
C652        C  0.16445764  0.37698096  0.99354387    -0.11200
C653        C  0.20495789  0.30904383  0.99078525     0.01600
C654        C  0.22142905  0.28971017  0.98933621    -0.31200
C655        C  0.11338074  0.38630287  0.99625705     0.03000
C656        C  0.09412846  0.40293502  0.99683956    -0.32900
H657        H  0.11037608  0.32965382  0.99669788     0.14000
H658        H  0.15012351  0.29633745  0.99431032     0.13800
H659        H  0.20842674  0.36606763  0.99085267     0.13700
H660        H  0.16857339  0.39947402  0.99325832     0.12700
C661        C  0.86823193  0.49177999  0.86237562     0.19100
C662        C  0.87537985  0.49357443  0.83371266    -0.10100
C663        C  0.85429396  0.49276242  0.81303368    -0.10900
C664        C  0.82591445  0.49014705  0.82087059     0.20600
C665        C  0.81877006  0.48824688  0.84952927    -0.12900
C666        C  0.83985858  0.48905840  0.87021001    -0.11200
C667        C  0.80417832  0.48970703  0.79954133     0.01600
C668        C  0.78615563  0.48962338  0.78151465    -0.31200
C669        C  0.88994099  0.49281466  0.88371762     0.03000
C670        C  0.90795740  0.49361599  0.90173469    -0.32900
H671        H  0.89721859  0.49567234  0.82736231     0.14000
H672        H  0.86010325  0.49426463  0.79096269     0.13800
H673        H  0.79692202  0.48623496  0.85587952     0.13700
H674        H  0.83404222  0.48764030  0.89228362     0.12700
C675        C  0.17483142  0.49541641  0.82186567     0.19100
C676        C  0.17592446  0.51590361  0.84320259    -0.10100
C677        C  0.15548781  0.51625939  0.86453876    -0.10900
C678        C  0.13382865  0.49612374  0.86466979     0.20600
C679        C  0.13282426  0.47555570  0.84340830    -0.12900
C680        C  0.15325748  0.47519904  0.82207929    -0.11200
C681        C  0.11253280  0.49664243  0.88642872     0.01600
C682        C  0.09444859  0.49681921  0.90438674    -0.31200
C683        C  0.19576747  0.49519206  0.79976759     0.03000
C684        C  0.21341722  0.49506229  0.78138889    -0.32900
H685        H  0.19251288  0.53162380  0.84329942     0.14000
H686        H  0.15652409  0.53225893  0.88085253     0.13800
H687        H  0.11620848  0.45986497  0.84327340     0.13700
H688        H  0.15218968  0.45923068  0.80573624     0.12700
C689        C  0.13214688  0.49465914  0.12990200     0.19100
C690        C  0.16008288  0.48853616  0.12242713    -0.10100
C691        C  0.18128065  0.48857657  0.14300160    -0.10900
C692        C  0.17468104  0.49473568  0.17118634     0.20600
C693        C  0.14675765  0.50088953  0.17865985    -0.12900
C694        C  0.12556110  0.50085701  0.15808346    -0.11200
C695        C  0.19647680  0.49451203  0.19243016     0.01600
C696        C  0.21469197  0.49398202  0.21023588    -0.31200
C697        C  0.11030290  0.49463018  0.10868438     0.03000
C698        C  0.09216209  0.49467036  0.09078130    -0.32900
H699        H  0.16546553  0.48372389  0.10072446     0.14000
H700        H  0.20277649  0.48376922  0.13695180     0.13800
H701        H  0.14137574  0.50566279  0.20037267     0.13700
H702        H  0.10406483  0.50563941  0.16414274     0.12700
C703        C  0.82372074  0.49600657  0.16957553     0.19100
C704        C  0.85226154  0.49595293  0.17723450    -0.10100
C705        C  0.87318688  0.49541111  0.15639970    -0.10900
C706        C  0.86570697  0.49493464  0.12777452     0.20600
C707        C  0.83716269  0.49486930  0.12011413    -0.12900
C708        C  0.81623166  0.49541092  0.14095395    -0.11200
C709        C  0.88729861  0.49477396  0.10632495     0.01600
C710        C  0.90547824  0.49478580  0.08847717    -0.31200
C711        C  0.80219270  0.49725141  0.19104434     0.03000
C712        C  0.78438253  0.49900550  0.20917344    -0.32900
H713        H  0.85832685  0.49648563  0.19928121     0.14000
H714        H  0.89516905  0.49549502  0.16259792     0.13800
H715        H  0.83110111  0.49453113  0.09806453     0.13700
H716        H  0.79424749  0.49552102  0.13476062     0.12700
C717        C  0.50217294  0.35786981  0.86740691     0.19100
C718        C  0.52782993  0.34627189  0.85844919    -0.10100
C719        C  0.52800545  0.32304556  0.84020824    -0.10900
C720        C  0.50252843  0.31127181  0.83095574     0.20600
C721        C  0.47688939  0.32264262  0.84022848    -0.12900
C722        C  0.47671343  0.34585854  0.85845687    -0.11200
C723        C  0.50264661  0.28912135  0.81018411     0.01600
C724        C  0.50261326  0.27308128  0.79044232    -0.31200
C725        C  0.50190783  0.38201851  0.88581679     0.03000
C726        C  0.50140739  0.40166959  0.90196642    -0.32900
H727        H  0.54764038  0.35535205  0.86531267     0.14000
H728        H  0.54794895  0.31459429  0.83294271     0.13800
H729        H  0.45707104  0.31388381  0.83298250     0.13700
H730        H  0.45676205  0.35461801  0.86532533     0.12700
C731        C  0.50006235  0.63383014  0.86812549     0.19100
C732        C  0.52577279  0.64414961  0.85788760    -0.10100
C733        C  0.52623360  0.66766374  0.84006720    -0.10900
C734        C  0.50099249  0.68100652  0.83248769     0.20600
C735        C  0.47530509  0.67093325  0.84305531    -0.12900
C736        C  0.47484438  0.64741479  0.86089340    -0.11200
C737        C  0.50125357  0.70315577  0.81174633     0.01600
C738        C  0.50141678  0.71877548  0.79168861    -0.31200
C739        C  0.49962058  0.60942637  0.88616005     0.03000
C740        C  0.49954736  0.58963198  0.90212012    -0.32900
H741        H  0.54539416  0.63383719  0.86341773     0.14000
H742        H  0.54617872  0.67507091  0.83174213     0.13800
H743        H  0.45563843  0.68088646  0.83705111     0.13700
H744        H  0.45485452  0.63964245  0.86876534     0.12700
C745        C  0.50021414  0.67877598  0.15960361     0.19100
C746        C  0.47512562  0.66478646  0.15267903    -0.10100
C747        C  0.47557229  0.64191952  0.13401200    -0.10900
C748        C  0.50112240  0.63286533  0.12227064     0.20600
C749        C  0.52617301  0.64706665  0.12891102    -0.12900
C750        C  0.52572565  0.66994487  0.14758889    -0.11200
C751        C  0.50157096  0.60901938  0.10345435     0.01600
C752        C  0.50150550  0.58951265  0.08711125    -0.31200
C753        C  0.50006548  0.70058464  0.18074859     0.03000
C754        C  0.50005476  0.71627617  0.20077612    -0.32900
H755        H  0.45532538  0.67123981  0.16207611     0.14000
H756        H  0.45607554  0.63112142  0.12897771     0.13800
H757        H  0.54604096  0.64027280  0.11990720     0.13700
H758        H  0.54528918  0.68041772  0.15302882     0.12700
C759        C  0.49493607  0.31013197  0.15727718     0.19100
C760        C  0.47166267  0.32831964  0.15600043    -0.10100
C761        C  0.47187275  0.35147437  0.13767726    -0.10900
C762        C  0.49540988  0.35664305  0.12058707     0.20600
C763        C  0.51845385  0.33812640  0.12141020    -0.12900
C764        C  0.51824502  0.31495180  0.13975345    -0.11200
C765        C  0.49607342  0.38108488  0.10248633     0.01600
C766        C  0.49681777  0.40105275  0.08668906    -0.31200
C767        C  0.49576677  0.28823563  0.17837411     0.03000
C768        C  0.49621822  0.27287386  0.19867957    -0.32900
H769        H  0.45363037  0.32496721  0.16963327     0.14000
H770        H  0.45390572  0.36558162  0.13717576     0.13800
H771        H  0.53674078  0.34186645  0.10822865     0.13700
H772        H  0.53646498  0.30120189  0.14072536     0.12700
C773        C  0.66233442  0.18046687  0.99707811     0.19100
C774        C  0.66568000  0.15946079  0.01765106    -0.10100
C775        C  0.64745611  0.13626485  0.01834124    -0.10900
C776        C  0.62578419  0.13387572  0.99841546     0.20600
C777        C  0.62210297  0.15511346  0.97810951    -0.12900
C778        C  0.64037025  0.17834109  0.97740678    -0.11200
C779        C  0.60752774  0.10954704  0.99865659     0.01600
C780        C  0.59163019  0.08965412  0.99868294    -0.31200
C781        C  0.68287174  0.20280217  0.99503564     0.03000
C782        C  0.70285679  0.21849630  0.99360649    -0.32900
H783        H  0.68272468  0.16074248  0.03282288     0.14000
H784        H  0.65049207  0.12003188  0.03416085     0.13800
H785        H  0.60537538  0.15352277  0.96261894     0.13700
H786        H  0.63769923  0.19431078  0.96125906     0.12700
C787        C  0.33572004  0.81082397  0.99885170     0.19100
C788        C  0.34687272  0.82023677  0.97312567    -0.10100
C789        C  0.36524096  0.84334053  0.97253743    -0.10900
C790        C  0.37247348  0.85718904  0.99766218     0.20600
C791        C  0.36157904  0.84757018  0.02342085    -0.12900
C792        C  0.34320207  0.82448107  0.02400638    -0.11200
C793        C  0.39108025  0.88120367  0.99702364     0.01600
C794        C  0.40732120  0.90078981  0.99659736    -0.31200
C795        C  0.31480222  0.78881112  0.99921288     0.03000
C796        C  0.29487533  0.77302248  0.99946348    -0.32900
H797        H  0.34098826  0.81004612  0.95351253     0.14000
H798        H  0.37356423  0.85057234  0.95250336     0.13800
H799        H  0.36705273  0.85808655  0.04298157     0.13700
H800        H  0.33445515  0.81759541  0.04398242     0.12700
C801        C  0.66345490  0.81093300  0.99547188     0.19100
C802        C  0.64414593  0.81500421  0.01748501    -0.10100
C803        C  0.62564809  0.83801720  0.01683447    -0.10900
C804        C  0.62644901  0.85710105  0.99422234     0.20600
C805        C  0.64539734  0.85272231  0.97197457    -0.12900
C806        C  0.66387755  0.82973091  0.97262462    -0.11200
C807        C  0.60806487  0.88129767  0.99402046     0.01600
C808        C  0.59204419  0.90106896  0.99415262    -0.31200
C809        C  0.68440344  0.78900622  0.99727413     0.03000
C810        C  0.70441913  0.77338687  0.99874328    -0.32900
H811        H  0.64378107  0.80075743  0.03537074     0.14000
H812        H  0.61103063  0.84116073  0.03412699     0.13800
H813        H  0.64616631  0.86728801  0.95435925     0.13700
H814        H  0.67888235  0.82693812  0.95560558     0.12700
C815        C  0.37266066  0.13285529  0.99518432     0.19100
C816        C  0.36274545  0.14567521  0.01993008    -0.10100
C817        C  0.34455581  0.16886927  0.01829335    -0.10900
C818        C  0.33630196  0.17941289  0.99191205     0.20600
C819        C  0.34650153  0.16679536  0.96718163    -0.12900
C820        C  0.36467705  0.14360920  0.96881690    -0.11200
C821        C  0.31552236  0.20149187  0.99020840     0.01600
C822        C  0.29564528  0.21728429  0.98883293    -0.31200
C823        C  0.39101572  0.10870967  0.99674952     0.03000
C824        C  0.40711936  0.08903343  0.99744701    -0.32900
H825        H  0.36881435  0.13756401  0.04043272     0.14000
H826        H  0.33653915  0.17824660  0.03755108     0.13800
H827        H  0.34000765  0.17454896  0.94667125     0.13700
H828        H  0.37225075  0.13388429  0.94955038     0.12700
C829        C  0.49999917  0.17082142  0.82281812     0.19100
C830        C  0.52004093  0.17145613  0.84455797    -0.10100
C831        C  0.51958942  0.15090450  0.86579976    -0.10900
C832        C  0.49908205  0.12959770  0.86544308     0.20600
C833        C  0.47900166  0.12900459  0.84374100    -0.12900
C834        C  0.47945683  0.14955111  0.82249890    -0.11200
C835        C  0.49877806  0.10824511  0.88716284     0.01600
C836        C  0.49867640  0.09016610  0.90513978    -0.31200
C837        C  0.50061075  0.19185098  0.80079202     0.03000
C838        C  0.50120437  0.20938014  0.78228540    -0.32900
H839        H  0.53603296  0.18777699  0.84504614     0.14000
H840        H  0.53524583  0.15158754  0.88243718     0.13800
H841        H  0.46305859  0.11263692  0.84320542     0.13700
H842        H  0.46385579  0.14881361  0.80581232     0.12700
C843        C  0.50257348  0.82183478  0.82050642     0.19100
C844        C  0.51346088  0.84870578  0.81461272    -0.10100
C845        C  0.51315501  0.86973384  0.83538807    -0.10900
C846        C  0.50196108  0.86400368  0.86217015     0.20600
C847        C  0.49116135  0.83710725  0.86808530    -0.12900
C848        C  0.49147189  0.81608514  0.84731919    -0.11200
C849        C  0.50150115  0.88566405  0.88355560     0.01600
C850        C  0.50103582  0.90360158  0.90165366    -0.31200
C851        C  0.50253601  0.80026063  0.79902451     0.03000
C852        C  0.50221382  0.78211137  0.78112793    -0.32900
H853        H  0.52209140  0.85341260  0.79396548     0.14000
H854        H  0.52157716  0.89043690  0.83056114     0.13800
H855        H  0.48246312  0.83241404  0.88870763     0.13700
H856        H  0.48299137  0.79540201  0.85213349     0.12700
C857        C  0.50056289  0.81927678  0.17050838     0.19100
C858        C  0.49910124  0.81152399  0.14198708    -0.10100
C859        C  0.49893931  0.83226616  0.12094153    -0.10900
C860        C  0.50023880  0.86089927  0.12827612     0.20600
C861        C  0.50177412  0.86866740  0.15680191    -0.12900
C862        C  0.50193261  0.84791587  0.17785788    -0.11200
C863        C  0.49997006  0.88224820  0.10656038     0.01600
C864        C  0.49977291  0.90019624  0.08845901    -0.31200
C865        C  0.50056683  0.79786420  0.19216346     0.03000
C866        C  0.50049829  0.77987525  0.21022836    -0.32900
H867        H  0.49804851  0.78946646  0.13603023     0.14000
H868        H  0.49776992  0.82598643  0.09897792     0.13800
H869        H  0.50281241  0.89072789  0.16275250     0.13700
H870        H  0.50308240  0.85418751  0.19982695     0.12700
C871        C  0.49943544  0.16876147  0.17238600     0.19100
C872        C  0.51420956  0.14361383  0.17736765    -0.10100
C873        C  0.51443411  0.12223632  0.15693336    -0.10900
C874        C  0.49986774  0.12591003  0.13144063     0.20600
C875        C  0.48504485  0.15101277  0.12653270    -0.12900
C876        C  0.48483011  0.17236475  0.14693359    -0.11200
C877        C  0.50019060  0.10411191  0.11020398     0.01600
C878        C  0.50019412  0.08628618  0.09199493    -0.31200
C879        C  0.49919286  0.19089363  0.19328053     0.03000
C880        C  0.49857456  0.20960034  0.21057912    -0.32900
H881        H  0.52556170  0.14056630  0.19697858     0.14000
H882        H  0.52597687  0.10292154  0.16097348     0.13800
H883        H  0.47371147  0.15409942  0.10691713     0.13700
H884        H  0.47332171  0.19168982  0.14284655     0.12700
C885        C  0.37327282  0.98984260  0.13499501     0.19100
C886        C  0.35792809  0.96554700  0.14194545    -0.10100
C887        C  0.33934723  0.96587820  0.16488697    -0.10900
C888        C  0.33608341  0.99047380  0.18102642     0.20600
C889        C  0.35189595  0.01456723  0.17444178    -0.12900
C890        C  0.37048903  0.01422947  0.15151775    -0.11200
C891        C  0.31470300  0.99171307  0.20257503     0.01600
C892        C  0.29448926  0.99288561  0.21796875    -0.31200
C893        C  0.39154562  0.98998242  0.11071787     0.03000
C894        C  0.40747981  0.99070014  0.09089040    -0.32900
H895        H  0.35996034  0.94655062  0.12936690     0.14000
H896        H  0.32704615  0.94719858  0.16962441     0.13800
H897        H  0.34936945  0.03377585  0.18659824     0.13700
H898        H  0.38230967  0.03311234  0.14637798     0.12700
C899        C  0.62625442  0.99683948  0.85856168     0.19100
C900        C  0.63859633  0.02209388  0.84939931    -0.10100
C901        C  0.65667196  0.02208959  0.82606965    -0.10900
C902        C  0.66241787  0.99685353  0.81173456     0.20600
C903        C  0.64976832  0.97166021  0.82066778    -0.12900
C904        C  0.63167958  0.97166579  0.84399812    -0.11200
C905        C  0.68319258  0.99645516  0.78958618     0.01600
C906        C  0.70314817  0.99619090  0.77383172    -0.31200
C907        C  0.60799089  0.99674678  0.88282610     0.03000
C908        C  0.59192686  0.99656690  0.90254745    -0.32900
H909        H  0.63449843  0.04169014  0.86046093     0.14000
H910        H  0.66657808  0.04163779  0.81954637     0.13800
H911        H  0.65429714  0.95197124  0.80994780     0.13700
H912        H  0.62219001  0.95202839  0.85086570     0.12700
C913        C  0.33503386  0.99838181  0.81286968     0.19100
C914        C  0.35560000  0.01943460  0.81558385    -0.10100
C915        C  0.37394302  0.01928090  0.83873879    -0.10900
C916        C  0.37172021  0.99814534  0.85934386     0.20600
C917        C  0.35123575  0.97703163  0.85654449    -0.12900
C918        C  0.33292403  0.97717399  0.83340013    -0.11200
C919        C  0.39057470  0.99797398  0.88319930     0.01600
C920        C  0.40700552  0.99759389  0.90264398    -0.31200
C921        C  0.31482513  0.99946966  0.79020088     0.03000
C922        C  0.29536117  0.00053652  0.77386252    -0.32900
H923        H  0.35723855  0.03610078  0.80001083     0.14000
H924        H  0.38972400  0.03570113  0.84065996     0.13800
H925        H  0.34932656  0.96057371  0.87230975     0.13700
H926        H  0.31691099  0.96095280  0.83168723     0.12700
C927        C  0.49804370  0.16090343  0.31212600     0.19100
C928        C  0.47250567  0.14974524  0.32195290    -0.10100
C929        C  0.47230061  0.13112039  0.34487366    -0.10900
C930        C  0.49762917  0.12365612  0.35813544     0.20600
C931        C  0.52319014  0.13458307  0.34812311    -0.12900
C932        C  0.52339590  0.15319187  0.32519744    -0.11200
C933        C  0.49745282  0.10470294  0.38189294     0.01600
C934        C  0.49764774  0.08819363  0.40126694    -0.31200
C935        C  0.49802191  0.18192220  0.29018214     0.03000
C936        C  0.49771745  0.20174622  0.27423125    -0.32900
H937        H  0.45275272  0.15578466  0.31219378     0.14000
H938        H  0.45241715  0.12275475  0.35239779     0.13800
H939        H  0.54290231  0.12891204  0.35818249     0.13700
H940        H  0.54323930  0.16190472  0.31796640     0.12700
C941        C  0.50193213  0.86836880  0.35708892     0.19100
C942        C  0.47659870  0.86209594  0.34322858    -0.10100
C943        C  0.47648538  0.84362369  0.32018727    -0.10900
C944        C  0.50172488  0.83143499  0.31084620     0.20600
C945        C  0.52711743  0.83805459  0.32443564    -0.12900
C946        C  0.52723096  0.85652277  0.34747682    -0.11200
C947        C  0.50127460  0.81024235  0.28909370     0.01600
C948        C  0.50094098  0.79005232  0.27362159    -0.31200
C949        C  0.50191509  0.88687067  0.38119077     0.03000
C950        C  0.50164542  0.90302697  0.40085654    -0.32900
H951        H  0.45692384  0.87118835  0.35045447     0.14000
H952        H  0.45669095  0.83841644  0.31003652     0.13800
H953        H  0.54671152  0.82850785  0.31758385     0.13700
H954        H  0.54694617  0.86127199  0.35800003     0.12700
C955        C  0.50189110  0.15722033  0.68103662     0.19100
C956        C  0.47654952  0.15050758  0.66740953    -0.10100
C957        C  0.47663960  0.13274960  0.64382600    -0.10900
C958        C  0.50208288  0.12169210  0.63368270     0.20600
C959        C  0.52740135  0.12807555  0.64753218    -0.12900
C960        C  0.52731194  0.14585879  0.67112856    -0.11200
C961        C  0.50211234  0.10370600  0.60918450     0.01600
C962        C  0.50169384  0.08778473  0.58932602    -0.31200
C963        C  0.50204960  0.17789149  0.70330416     0.03000
C964        C  0.50210764  0.19796850  0.71893559    -0.32900
H965        H  0.45681719  0.15945596  0.67465858     0.14000
H966        H  0.45693821  0.12790390  0.63331979     0.13800
H967        H  0.54719447  0.11958682  0.63990763     0.13700
H968        H  0.54707430  0.15119291  0.68127615     0.12700
C969        C  0.49892279  0.83132693  0.67908387     0.19100
C970        C  0.52103790  0.85056490  0.67537803    -0.10100
C971        C  0.52101739  0.86881011  0.65214991    -0.10900
C972        C  0.49893983  0.86781034  0.63250343     0.20600
C973        C  0.47668114  0.84878493  0.63639306    -0.12900
C974        C  0.47669907  0.83055996  0.65960439    -0.11200
C975        C  0.49910066  0.88635797  0.60844542     0.01600
C976        C  0.49928421  0.90264187  0.58889171    -0.31200
C977        C  0.49994038  0.81085716  0.70148475     0.03000
C978        C  0.50062968  0.79111798  0.71750229    -0.32900
H979        H  0.53845882  0.85114899  0.69015429     0.14000
H980        H  0.53830734  0.88349121  0.64936695     0.13800
H981        H  0.45948057  0.84786726  0.62137406     0.13700
H982        H  0.45963206  0.81556727  0.66211908     0.12700
C983        C  0.36696036  0.99521453  0.36211038     0.19100
C984        C  0.33888307  0.98975729  0.36954320    -0.10100
C985        C  0.31783069  0.98952384  0.34882928    -0.10900
C986        C  0.32470434  0.99473260  0.32052693     0.20600
C987        C  0.35278636  0.00018638  0.31306807    -0.12900
C988        C  0.37385082  0.00042246  0.33379496    -0.11200
C989        C  0.30295837  0.99453149  0.29921923     0.01600
C990        C  0.28474977  0.99446399  0.28139162    -0.31200
C991        C  0.38861189  0.99543569  0.38353203     0.03000
C992        C  0.40658344  0.99550456  0.40161101    -0.32900
H993        H  0.33327082  0.98569297  0.39133806     0.14000
H994        H  0.29621430  0.98529507  0.35487725     0.13800
H995        H  0.35838221  0.00425625  0.29126757     0.13700
H996        H  0.39546654  0.00466316  0.32775469     0.12700
C997        C  0.67450559  0.99721857  0.67021101     0.19100
C998        C  0.64627972  0.00246802  0.67722710    -0.10100
C999        C  0.62554625  0.00267545  0.65617443    -0.10900
C1000       C  0.63287665  0.99762409  0.62794440     0.20600
C1001       C  0.66113608  0.99253015  0.62090185    -0.12900
C1002       C  0.68187768  0.99232983  0.64196054    -0.11200
C1003       C  0.61139302  0.99738986  0.60631788     0.01600
C1004       C  0.59332245  0.99702623  0.58832000    -0.31200
C1005       C  0.69580510  0.99667389  0.69198938     0.03000
C1006       C  0.71356836  0.99618394  0.71027222    -0.32900
H1007       H  0.64029098  0.00629057  0.69896804     0.14000
H1008       H  0.60380213  0.00664895  0.66192264     0.13800
H1009       H  0.66710925  0.98860069  0.59917713     0.13700
H1010       H  0.70361357  0.98826214  0.63623820     0.12700
C1011       C  0.32535350  0.99607239  0.67039639     0.19100
C1012       C  0.35374880  0.00008857  0.67754271    -0.10100
C1013       C  0.37457701  0.99935354  0.65659365    -0.10900
C1014       C  0.36717146  0.99459102  0.62833465     0.20600
C1015       C  0.33877725  0.99050278  0.62118887    -0.12900
C1016       C  0.31794035  0.99124699  0.64214395    -0.11200
C1017       C  0.38864794  0.99414182  0.60670874     0.01600
C1018       C  0.40665949  0.99406899  0.58865146    -0.31200
C1019       C  0.30387063  0.99721392  0.69198170     0.03000
C1020       C  0.28592669  0.99861582  0.71004854    -0.32900
H1021       H  0.35977098  0.00387213  0.69928044     0.14000
H1022       H  0.39642534  0.00257413  0.66241691     0.13800
H1023       H  0.33274702  0.98682796  0.59943558     0.13700
H1024       H  0.29607486  0.98814940  0.63631309     0.12700
C1025       C  0.66450479  0.99554963  0.17989569     0.19100
C1026       C  0.64774321  0.01923083  0.17424609    -0.10100
C1027       C  0.62913961  0.01902970  0.15132887    -0.10900
C1028       C  0.62729230  0.99518110  0.13391028     0.20600
C1029       C  0.64380006  0.97137558  0.13976404    -0.12900
C1030       C  0.66240180  0.97157918  0.16267120    -0.11200
C1031       C  0.60849983  0.99515128  0.11005464     0.01600
C1032       C  0.59216192  0.99509533  0.09056017    -0.31200
C1033       C  0.68544347  0.99660829  0.20185769     0.03000
C1034       C  0.70530338  0.99786005  0.21767775    -0.32900
H1035       H  0.64940344  0.03797903  0.18724338     0.14000
H1036       H  0.61643506  0.03753844  0.14702171     0.13800
H1037       H  0.64250658  0.95280830  0.12646590     0.05300
H1038       H  0.67547272  0.95325520  0.16666214     0.12700
C1039       C  0.63261651  0.99383360  0.36209950     0.19100
C1040       C  0.62531166  0.99608328  0.33350400    -0.10100
C1041       C  0.64635052  0.99668816  0.31275809    -0.10900
C1042       C  0.67483983  0.99503802  0.32046463     0.20600
C1043       C  0.68213298  0.99261089  0.34904315    -0.12900
C1044       C  0.66109744  0.99200622  0.36978501    -0.11200
C1045       C  0.69655829  0.99618642  0.29913374     0.01600
C1046       C  0.71471932  0.99748970  0.28128850    -0.31200
C1047       C  0.61096964  0.99379361  0.38354102     0.03000
C1048       C  0.59292479  0.99408887  0.40155131    -0.32900
H1049       H  0.60338809  0.99752147  0.32726649     0.14000
H1050       H  0.64041831  0.99858362  0.29075130     0.13800
H1051       H  0.70406410  0.99133295  0.35529252     0.13700
H1052       H  0.66704218  0.99027017  0.39180010     0.12700
C1053       C  0.31564567  0.83152620  0.49397008     0.19100
C1054       C  0.33509034  0.83007622  0.51620551    -0.10100
C1055       C  0.35829711  0.84827119  0.51682761    -0.10900
C1056       C  0.36225832  0.86798870  0.49516341     0.20600
C1057       C  0.34262283  0.86971875  0.47309412    -0.12900
C1058       C  0.31938584  0.85149236  0.47246768    -0.11200
C1059       C  0.38646699  0.88636425  0.49553628     0.01600
C1060       C  0.40617841  0.90246516  0.49569522    -0.31200
C1061       C  0.29323171  0.81106279  0.49237116     0.03000
C1062       C  0.27727330  0.79125436  0.49156633    -0.32900
H1063       H  0.33256309  0.81455312  0.53281187     0.14000
H1064       H  0.37328881  0.84676030  0.53401513     0.13800
H1065       H  0.34544412  0.88492577  0.45624720     0.13700
H1066       H  0.30464484  0.85265412  0.45503933     0.12700
C1067       C  0.63741586  0.86793893  0.49553639     0.19100
C1068       C  0.66407292  0.87702830  0.50459854    -0.10100
C1069       C  0.68672978  0.85807554  0.50528325    -0.10900
C1070       C  0.68278279  0.82999834  0.49685834     0.20600
C1071       C  0.65618329  0.82102750  0.48761886    -0.12900
C1072       C  0.63358334  0.83992883  0.48694533    -0.11200
C1073       C  0.70544207  0.80984854  0.49851948     0.01600
C1074       C  0.72160428  0.79026738  0.50002364    -0.31200
C1075       C  0.61393837  0.88721212  0.49518405     0.03000
C1076       C  0.59446743  0.90358499  0.49491833    -0.32900
H1077       H  0.66727974  0.89866497  0.51128085     0.14000
H1078       H  0.70716761  0.86521726  0.51257061     0.13800
H1079       H  0.65285998  0.79933349  0.48116795     0.13700
H1080       H  0.61310238  0.83266549  0.47989590     0.12700
C1081       C  0.68301096  0.16019293  0.48989556     0.19100
C1082       C  0.66210669  0.16409774  0.51045182    -0.10100
C1083       C  0.63900083  0.14580697  0.51174774    -0.10900
C1084       C  0.63662696  0.12353729  0.49244596     0.20600
C1085       C  0.65766872  0.11943698  0.47205720    -0.12900
C1086       C  0.68078947  0.13775827  0.47074842    -0.11200
C1087       C  0.61265540  0.10490528  0.49355102     0.01600
C1088       C  0.59314204  0.08859673  0.49430453    -0.31200
C1089       C  0.70552925  0.18043517  0.48740010     0.03000
C1090       C  0.72165378  0.19999881  0.48526274    -0.32900
H1091       H  0.66346781  0.18152387  0.52520986     0.14000
H1092       H  0.62289935  0.14916376  0.52761962     0.13800
H1093       H  0.65607316  0.10225037  0.45704719     0.13700
H1094       H  0.69667935  0.13467601  0.45461240     0.12700
C1095       C  0.31493777  0.15899662  0.49766245     0.19100
C1096       C  0.32478459  0.14626686  0.52247647    -0.10100
C1097       C  0.34789249  0.12792198  0.52155589    -0.10900
C1098       C  0.36136949  0.12226938  0.49583226     0.20600
C1099       C  0.35129248  0.13469932  0.47094761    -0.12900
C1100       C  0.32817228  0.15304900  0.47186889    -0.11200
C1101       C  0.38549283  0.10375135  0.49504941     0.01600
C1102       C  0.40516414  0.08757840  0.49478085    -0.31200
C1103       C  0.29292659  0.17993784  0.49901372     0.03000
C1104       C  0.27716439  0.19988853  0.50032633    -0.32900
H1105       H  0.31493437  0.15091815  0.54258267     0.14000
H1106       H  0.35544134  0.11840374  0.54092826     0.13800
H1107       H  0.36148556  0.13046077  0.45092179     0.13700
H1108       H  0.32095146  0.16298465  0.45257980     0.12700
C1109       C  0.81584507  0.99184486  0.66134727     0.19100
C1110       C  0.84129813  0.97897975  0.66910287    -0.10100
C1111       C  0.86402902  0.97861236  0.65034083    -0.10900
C1112       C  0.86146365  0.99115433  0.62370959     0.20600
C1113       C  0.83591443  0.00378348  0.61579323    -0.12900
C1114       C  0.81313610  0.00415534  0.63459658    -0.11200
C1115       C  0.88516228  0.99141904  0.60472184     0.01600
C1116       C  0.90472265  0.99193598  0.58846928    -0.31200
C1117       C  0.79323973  0.99334952  0.68156176     0.03000
C1118       C  0.77712320  0.99438431  0.70120899    -0.32900
H1119       H  0.84367480  0.96953209  0.68979945     0.14000
H1120       H  0.88366009  0.96880517  0.65669371     0.13800
H1121       H  0.83370865  0.01355729  0.59523467     0.13700
H1122       H  0.79361273  0.01428588  0.62843158     0.12700
C1123       C  0.18325711  0.99787830  0.66078906     0.19100
C1124       C  0.18274529  0.01489419  0.63661157    -0.10100
C1125       C  0.15941658  0.01414035  0.61852917    -0.10900
C1126       C  0.13650476  0.99645033  0.62462518     0.20600
C1127       C  0.13713641  0.97930680  0.64868212    -0.12900
C1128       C  0.16043159  0.98004849  0.66672587    -0.11200
C1129       C  0.11238740  0.99588668  0.60621216     0.01600
C1130       C  0.09277775  0.99550539  0.59003741    -0.31200
C1131       C  0.20619100  0.99973720  0.68058760     0.03000
C1132       C  0.22246967  0.00104669  0.70007719    -0.32900
H1133       H  0.20015983  0.02893115  0.63194141     0.14000
H1134       H  0.15914317  0.02747276  0.59994835     0.13800
H1135       H  0.11956388  0.96554511  0.65358849     0.13700
H1136       H  0.16049960  0.96698193  0.68549997     0.12700
C1137       C  0.18382901  0.99477157  0.33268061     0.19100
C1138       C  0.16905879  0.96975230  0.33825061    -0.10100
C1139       C  0.14622674  0.96987309  0.35696152    -0.10900
C1140       C  0.13798085  0.99503552  0.37014796     0.20600
C1141       C  0.15302560  0.01996402  0.36492795    -0.12900
C1142       C  0.17585249  0.01984605  0.34620003    -0.11200
C1143       C  0.11401886  0.99533284  0.38886200     0.01600
C1144       C  0.09437670  0.99567503  0.40505355    -0.31200
C1145       C  0.20555787  0.99511292  0.31141618     0.03000
C1146       C  0.22118882  0.99528827  0.29132270    -0.32900
H1147       H  0.17485210  0.95028821  0.32772968     0.14000
H1148       H  0.13480273  0.95045725  0.36086451     0.13800
H1149       H  0.14688790  0.03953588  0.37504264     0.13700
H1150       H  0.18692738  0.03937236  0.34186973     0.12700
C1151       C  0.81770211  0.00032258  0.33047941     0.19100
C1152       C  0.81295250  0.99985173  0.35966417    -0.10100
C1153       C  0.83583923  0.99934219  0.37834226    -0.10900
C1154       C  0.86351360  0.99930524  0.36788860     0.20600
C1155       C  0.86820074  0.99982247  0.33871971    -0.12900
C1156       C  0.84537137  0.00033148  0.32008745    -0.11200
C1157       C  0.88708639  0.99868024  0.38703280     0.01600
C1158       C  0.90643676  0.99810188  0.40353585    -0.31200
C1159       C  0.79455503  0.00067925  0.31082549     0.03000
C1160       C  0.77821007  0.00089583  0.29133938    -0.32900
H1161       H  0.79166305  0.99983816  0.36793575     0.14000
H1162       H  0.83197694  0.99894611  0.40088199     0.13800
H1163       H  0.88947237  0.99980074  0.33039191     0.13700
H1164       H  0.84928804  0.00069113  0.29755015     0.12700
C1165       C  0.17440163  0.82115237  0.49135997     0.19100
C1166       C  0.18086220  0.84878811  0.48297419    -0.10100
C1167       C  0.16010846  0.86979745  0.48376270    -0.10900
C1168       C  0.13277522  0.86330040  0.49295287     0.20600
C1169       C  0.12631027  0.83565302  0.50127504    -0.12900
C1170       C  0.14705355  0.81464922  0.50047768    -0.11200
C1171       C  0.11138847  0.88493869  0.49385780     0.01600
C1172       C  0.09336891  0.90293418  0.49458739    -0.31200
C1173       C  0.19584129  0.79955666  0.49091304     0.03000
C1174       C  0.21377381  0.78145981  0.49091471    -0.32900
H1175       H  0.20192702  0.85409788  0.47591031     0.14000
H1176       H  0.16537643  0.89108049  0.47726394     0.13800
H1177       H  0.10526888  0.83035142  0.50841231     0.13700
H1178       H  0.14179639  0.79338067  0.50703478     0.12700
C1179       C  0.82480350  0.82062873  0.49662323     0.19100
C1180       C  0.81812290  0.84885241  0.50248884    -0.10100
C1181       C  0.83914649  0.86959849  0.50171513    -0.10900
C1182       C  0.86700523  0.86227496  0.49507161     0.20600
C1183       C  0.87365667  0.83406616  0.48905722    -0.12900
C1184       C  0.85262908  0.81331413  0.48983656    -0.11200
C1185       C  0.88874707  0.88362910  0.49475081     0.01600
C1186       C  0.90681276  0.90162888  0.49481730    -0.31200
C1187       C  0.80322117  0.79917790  0.49791333     0.03000
C1188       C  0.78525328  0.78115691  0.49935694    -0.32900
H1189       H  0.79671032  0.85479141  0.50778082     0.14000
H1190       H  0.83370831  0.89130715  0.50641864     0.13800
H1191       H  0.89509308  0.82810200  0.48390194     0.13700
H1192       H  0.85808415  0.79157631  0.48528111     0.12700
C1193       C  0.82473979  0.17055658  0.49155926     0.19100
C1194       C  0.85334478  0.17802483  0.49159339    -0.10100
C1195       C  0.87415726  0.15707152  0.49289614    -0.10900
C1196       C  0.86651790  0.12849604  0.49416598     0.20600
C1197       C  0.83791246  0.12105131  0.49421206    -0.12900
C1198       C  0.81710820  0.14199586  0.49290910    -0.11200
C1199       C  0.88795807  0.10683975  0.49523051     0.01600
C1200       C  0.90588095  0.08869957  0.49595258    -0.31200
C1201       C  0.80325457  0.19209469  0.48972643     0.03000
C1202       C  0.78520341  0.20998680  0.48765013    -0.32900
H1203       H  0.85955000  0.20000926  0.49050419     0.14000
H1204       H  0.89617493  0.16314129  0.49282264     0.13800
H1205       H  0.83169627  0.09906599  0.49516365     0.13700
H1206       H  0.79509154  0.13591785  0.49284412     0.12700
C1207       C  0.17363278  0.17118902  0.49858324     0.19100
C1208       C  0.18095056  0.14262331  0.50094209    -0.10100
C1209       C  0.15996010  0.12184965  0.50124880    -0.10900
C1210       C  0.13148757  0.12948036  0.49920466     0.20600
C1211       C  0.12414805  0.15805648  0.49678570    -0.12900
C1212       C  0.14515652  0.17884907  0.49648415    -0.11200
C1213       C  0.10991139  0.10797540  0.49948691     0.01600
C1214       C  0.09205642  0.08977632  0.49950136    -0.31200
C1215       C  0.19532589  0.19256055  0.49871235     0.03000
C1216       C  0.21361701  0.21029626  0.49939250    -0.32900
H1217       H  0.20286760  0.13642097  0.50261912     0.14000
H1218       H  0.16592787  0.09985402  0.50310585     0.13800
H1219       H  0.10222526  0.16425087  0.49516598     0.13700
H1220       H  0.13920597  0.20085704  0.49469230     0.12700
C1221       C  0.99792979  0.62210624  0.13488430     0.19100
C1222       C  0.97357671  0.63699509  0.14252515    -0.10100
C1223       C  0.97418792  0.65566764  0.16540798    -0.10900
C1224       C  0.99912789  0.65948268  0.18080872     0.20600
C1225       C  0.02335263  0.64425119  0.17345195    -0.12900
C1226       C  0.02273936  0.62557067  0.15057537    -0.11200
C1227       C  0.00047974  0.68079412  0.20243937     0.01600
C1228       C  0.00182776  0.70096306  0.21790595    -0.31200
C1229       C  0.99758328  0.60347067  0.11084952     0.03000
C1230       C  0.99765498  0.58730501  0.09116564    -0.32900
H1231       H  0.95426723  0.63446415  0.13057802     0.14000
H1232       H  0.95540831  0.66754976  0.17072181     0.13800
H1233       H  0.04282823  0.64724303  0.18501662     0.13700
H1234       H  0.04168605  0.61413935  0.14488570     0.12700
C1235       C  0.00437862  0.85944823  0.36799513     0.19100
C1236       C  0.02569691  0.85725360  0.34766571    -0.10100
C1237       C  0.02633891  0.83412465  0.32933421    -0.10900
C1238       C  0.00572757  0.81301179  0.33127548     0.20600
C1239       C  0.98460914  0.81499320  0.35186029    -0.12900
C1240       C  0.98397338  0.83814572  0.37022366    -0.11200
C1241       C  0.00524663  0.79060842  0.31073242     0.01600
C1242       C  0.00499154  0.77460944  0.29093380    -0.31200
C1243       C  0.00339303  0.88355147  0.38649632     0.03000
C1244       C  0.00253335  0.90312209  0.40275943    -0.32900
H1245       H  0.04161087  0.87355066  0.34578425     0.14000
H1246       H  0.04261937  0.83294250  0.31333298     0.13800
H1247       H  0.96842247  0.79893424  0.35340161     0.13700
H1248       H  0.96742350  0.83960058  0.38591973     0.12700
C1249       C  0.00238062  0.36955773  0.85753685     0.19100
C1250       C  0.02844962  0.36012501  0.84734345    -0.10100
C1251       C  0.02956481  0.34202052  0.82405584    -0.10900
C1252       C  0.00461843  0.33335771  0.81080386     0.20600
C1253       C  0.97856952  0.34317214  0.82070338    -0.12900
C1254       C  0.97745410  0.36129465  0.84399262    -0.11200
C1255       C  0.00562233  0.31239579  0.78886673     0.01600
C1256       C  0.00652803  0.29229287  0.77331809    -0.31200
C1257       C  0.00126824  0.38768208  0.88187311     0.03000
C1258       C  0.00073071  0.40359236  0.90171484    -0.32900
H1259       H  0.04785198  0.36646641  0.85761079     0.14000
H1260       H  0.04980012  0.33432047  0.81676313     0.13800
H1261       H  0.95913867  0.33636241  0.81079881     0.13700
H1262       H  0.95718989  0.36854864  0.85165065     0.12700
C1263       C  0.00260998  0.13164873  0.62584811     0.19100
C1264       C  0.97820802  0.14729462  0.63161833    -0.10100
C1265       C  0.97957312  0.17094348  0.64926965    -0.10900
C1266       C  0.00536897  0.17913302  0.66112092     0.20600
C1267       C  0.02981464  0.16363494  0.65513930    -0.12900
C1268       C  0.02844912  0.13998645  0.63749998    -0.11200
C1269       C  0.00636931  0.20186234  0.68127047     0.01600
C1270       C  0.00713279  0.21817618  0.70078789    -0.31200
C1271       C  0.00122370  0.10731588  0.60767059     0.03000
C1272       C  0.00031893  0.08773961  0.59141131    -0.32900
H1273       H  0.95812956  0.14109458  0.62265601     0.14000
H1274       H  0.96048202  0.18256165  0.65401702     0.13800
H1275       H  0.04981599  0.16956653  0.66445375     0.13700
H1276       H  0.04746475  0.12810163  0.63311946     0.12700
C1277       C  0.00068104  0.62268936  0.85882160     0.19100
C1278       C  0.02610630  0.63368696  0.84855506    -0.10100
C1279       C  0.02607417  0.65182125  0.82525440    -0.10900
C1280       C  0.00062851  0.65896364  0.81204148     0.20600
C1281       C  0.97524161  0.64760221  0.82202211    -0.12900
C1282       C  0.97527367  0.62945727  0.84532836    -0.11200
C1283       C  0.00036383  0.67981731  0.78994739     0.01600
C1284       C  0.00021289  0.69968282  0.77405075    -0.31200
C1285       C  0.00067589  0.60448461  0.88316093     0.03000
C1286       C  0.00067795  0.58844870  0.90293068    -0.32900
H1287       H  0.04588090  0.62852934  0.85876558     0.14000
H1288       H  0.04579748  0.66070290  0.81789901     0.13800
H1289       H  0.95541412  0.65320012  0.81215177     0.13700
H1290       H  0.95549568  0.62100380  0.85303162     0.12700
C1291       C  0.99942138  0.85523445  0.62135514     0.19100
C1292       C  0.97451007  0.84020739  0.62657271    -0.10100
C1293       C  0.97475957  0.81695953  0.64479174    -0.10900
C1294       C  0.99994524  0.80858523  0.65777460     0.20600
C1295       C  0.02495346  0.82326803  0.65209333    -0.12900
C1296       C  0.02470227  0.84650868  0.63389540    -0.11200
C1297       C  0.99970381  0.78685359  0.67899700     0.01600
C1298       C  0.99967193  0.77158549  0.69934733    -0.31200
C1299       C  0.99903650  0.87967383  0.60329959     0.03000
C1300       C  0.99889150  0.89967499  0.58755928    -0.32900
H1301       H  0.95485665  0.84672037  0.61691831     0.14000
H1302       H  0.95524523  0.80594902  0.64925635     0.13800
H1303       H  0.04449106  0.81716451  0.66224244     0.13700
H1304       H  0.04410086  0.85791718  0.62994935     0.12700
C1305       C  0.16397906  0.67908982  0.49384291     0.19100
C1306       C  0.16750288  0.65714698  0.51337817    -0.10100
C1307       C  0.14922468  0.63399058  0.51318825    -0.10900
C1308       C  0.12732063  0.63258993  0.49342310     0.20600
C1309       C  0.12354990  0.65468874  0.47408089    -0.12900
C1310       C  0.14188228  0.67786922  0.47424806    -0.11200
C1311       C  0.10870448  0.60855053  0.49311033     0.01600
C1312       C  0.09248685  0.58892577  0.49320095    -0.31200
C1313       C  0.18429252  0.70168423  0.49288214     0.03000
C1314       C  0.20398027  0.71778856  0.49224136    -0.32900
H1315       H  0.18464365  0.65774350  0.52848399     0.14000
H1316       H  0.15230947  0.61709037  0.52828386     0.13800
H1317       H  0.10662520  0.65387585  0.45874662     0.13700
H1318       H  0.13907730  0.69458687  0.45890027     0.12700
C1319       C  0.83416964  0.31250360  0.48955968     0.19100
C1320       C  0.85971273  0.31183834  0.47473796    -0.10100
C1321       C  0.87813576  0.33489388  0.47607761    -0.10900
C1322       C  0.87104847  0.35871235  0.49217837     0.20600
C1323       C  0.84565387  0.35921764  0.50722964    -0.12900
C1324       C  0.82726220  0.33619470  0.50589734    -0.11200
C1325       C  0.88973017  0.38265951  0.49310077     0.01600
C1326       C  0.90602759  0.40219273  0.49368096    -0.31200
C1327       C  0.81413978  0.28981986  0.48691105     0.03000
C1328       C  0.79467837  0.27359198  0.48477197    -0.32900
H1329       H  0.86519148  0.29372404  0.46189768     0.14000
H1330       H  0.89774708  0.33426637  0.46437335     0.13800
H1331       H  0.83996215  0.37748453  0.51976161     0.13700
H1332       H  0.80747453  0.33702057  0.51729455     0.12700
C1333       C  0.12541062  0.35666074  0.49557269     0.19100
C1334       C  0.14697286  0.35488211  0.47545819    -0.10100
C1335       C  0.16590277  0.33226628  0.47607174    -0.10900
C1336       C  0.16333986  0.31125741  0.49675168     0.20600
C1337       C  0.14145732  0.31274725  0.51656330    -0.12900
C1338       C  0.12249719  0.33538382  0.51594131    -0.11200
C1339       C  0.18443427  0.28948387  0.49872332     0.01600
C1340       C  0.20442034  0.27383427  0.50030889    -0.31200
C1341       C  0.10663709  0.38054708  0.49561554     0.03000
C1342       C  0.09057831  0.40028146  0.49571391    -0.32900
H1343       H  0.14940772  0.37117760  0.45959595     0.14000
H1344       H  0.18286543  0.33145126  0.46077422     0.13800
H1345       H  0.13938725  0.29674782  0.53277062     0.13700
H1346       H  0.10586607  0.33652569  0.53157636     0.12700
C1347       C  0.83714530  0.68081735  0.50071938     0.19100
C1348       C  0.84736298  0.67144633  0.47459209    -0.10100
C1349       C  0.86570159  0.64836334  0.47330063    -0.10900
C1350       C  0.87381363  0.63449019  0.49812579     0.20600
C1351       C  0.86401571  0.64418317  0.52429561    -0.12900
C1352       C  0.84567513  0.66726341  0.52558636    -0.11200
C1353       C  0.89203496  0.61024411  0.49675325     0.01600
C1354       C  0.90791911  0.59040659  0.49581261    -0.31200
C1355       C  0.81593821  0.70250293  0.50179759     0.03000
C1356       C  0.79572944  0.71789879  0.50249717    -0.32900
H1357       H  0.84067846  0.68158155  0.45521352     0.14000
H1358       H  0.87321658  0.64109257  0.45295986     0.13800
H1359       H  0.87022082  0.63365908  0.54362782     0.13700
H1360       H  0.83767848  0.67414094  0.54588014     0.12700
C1361       C  0.16577199  0.49120368  0.31273107     0.19100
C1362       C  0.13800397  0.50034336  0.30853113    -0.10100
C1363       C  0.11905989  0.50078824  0.33120630    -0.10900
C1364       C  0.12784735  0.49214756  0.35812959     0.20600
C1365       C  0.15553072  0.48278981  0.36222193    -0.12900
C1366       C  0.17442975  0.48233972  0.33959837    -0.11200
C1367       C  0.10857999  0.49305794  0.38159260     0.01600
C1368       C  0.09208341  0.49376971  0.40094561    -0.31200
C1369       C  0.18594143  0.49168889  0.29002732     0.03000
C1370       C  0.20557474  0.49196128  0.27386958    -0.32900
H1371       H  0.13110503  0.50733136  0.28788110     0.14000
H1372       H  0.09767045  0.50804126  0.32780903     0.13800
H1373       H  0.16255106  0.47604131  0.38291480     0.13700
H1374       H  0.19588616  0.47532643  0.34310632     0.12700
C1375       C  0.87401134  0.49542093  0.35532872     0.19100
C1376       C  0.85902510  0.47125780  0.34722811    -0.10100
C1377       C  0.84067395  0.47230384  0.32413447    -0.10900
C1378       C  0.83728050  0.49748941  0.30898572     0.20600
C1379       C  0.85277258  0.52146886  0.31667900    -0.12900
C1380       C  0.87114485  0.52041619  0.33976113    -0.11200
C1381       C  0.81592645  0.49941051  0.28747949     0.01600
C1382       C  0.79559264  0.50119015  0.27231946    -0.31200
C1383       C  0.89198098  0.49474817  0.37982239     0.03000
C1384       C  0.90765701  0.49461378  0.39986784    -0.32900
H1385       H  0.86113342  0.45179787  0.35905391     0.14000
H1386       H  0.82860551  0.45370626  0.31854391     0.13800
H1387       H  0.85012431  0.54112710  0.30529867     0.13700
H1388       H  0.88269873  0.53920522  0.34578408     0.12700
C1389       C  0.16276385  0.49194148  0.67952811     0.19100
C1390       C  0.16500734  0.47124704  0.65848960    -0.10100
C1391       C  0.14665479  0.47146960  0.63538511    -0.10900
C1392       C  0.12596575  0.49243495  0.63313370     0.20600
C1393       C  0.12341708  0.51290348  0.65438123    -0.12900
C1394       C  0.14181463  0.51269697  0.67750549    -0.11200
C1395       C  0.10750768  0.49304791  0.60897257     0.01600
C1396       C  0.09146284  0.49361583  0.58921064    -0.31200
C1397       C  0.18336139  0.49289489  0.70186618     0.03000
C1398       C  0.20322804  0.49351631  0.71775095    -0.32900
H1399       H  0.18127436  0.45523888  0.65969607     0.14000
H1400       H  0.14881067  0.45551473  0.61913632     0.13800
H1401       H  0.10745728  0.52919221  0.65289222     0.13700
H1402       H  0.14001825  0.52894740  0.69350071     0.12700
C1403       C  0.83581611  0.49553121  0.67898615     0.19100
C1404       C  0.86210985  0.48216431  0.68051964    -0.10100
C1405       C  0.88036234  0.48285789  0.65729045    -0.10900
C1406       C  0.87234371  0.49685665  0.63245938     0.20600
C1407       C  0.84619468  0.51046315  0.63108430    -0.12900
C1408       C  0.82798745  0.50978241  0.65426678    -0.11200
C1409       C  0.89080480  0.49707583  0.60833593     0.01600
C1410       C  0.90684812  0.49710722  0.58859002    -0.31200
C1411       C  0.81596689  0.49349253  0.70188353     0.03000
C1412       C  0.79636505  0.49196204  0.71800556    -0.32900
H1413       H  0.86831137  0.47093613  0.69944866     0.14000
H1414       H  0.90056487  0.47227445  0.65858180     0.13800
H1415       H  0.83977952  0.52135249  0.61202533     0.13700
H1416       H  0.80762373  0.52003389  0.65278182     0.12700
C1417       C  0.00168866  0.67077318  0.32028749     0.19100
C1418       C  0.97665871  0.65641988  0.32673779    -0.10100
C1419       C  0.97661009  0.63504937  0.34717097    -0.10900
C1420       C  0.00159213  0.62788962  0.36127324     0.20600
C1421       C  0.02662691  0.64219500  0.35476384    -0.12900
C1422       C  0.02667393  0.66355994  0.33434138    -0.11200
C1423       C  0.00149974  0.60608354  0.38255480     0.01600
C1424       C  0.00131987  0.58802591  0.40056261    -0.31200
C1425       C  0.00182331  0.69275292  0.29919010     0.03000
C1426       C  0.00235324  0.71096297  0.28134535    -0.32900
H1427       H  0.95721208  0.66175296  0.31600132     0.14000
H1428       H  0.95711411  0.62416277  0.35200501     0.13800
H1429       H  0.04607522  0.63687709  0.36550533     0.13700
H1430       H  0.04616925  0.67445502  0.32952587     0.12700
C1431       C  0.00238039  0.32169251  0.67065440     0.19100
C1432       C  0.99532706  0.34952702  0.67786013    -0.10100
C1433       C  0.99445248  0.37050529  0.65702777    -0.10900
C1434       C  0.00063103  0.36377417  0.62886615     0.20600
C1435       C  0.00767271  0.33594904  0.62168829    -0.12900
C1436       C  0.00854479  0.31498854  0.64250193    -0.11200
C1437       C  0.99988982  0.38533557  0.60734322     0.01600
C1438       C  0.99948634  0.40316879  0.58911542    -0.31200
C1439       C  0.00352548  0.30006434  0.69209303     0.03000
C1440       C  0.00482893  0.28196343  0.71001531    -0.32900
H1441       H  0.99056230  0.35500746  0.69955053     0.14000
H1442       H  0.98901102  0.39193518  0.66287343     0.13800
H1443       H  0.01252584  0.33046976  0.60001873     0.13700
H1444       H  0.01406883  0.29358061  0.63665516     0.12700
C1445       C  0.99848984  0.66917414  0.67048858     0.19100
C1446       C  0.00392883  0.64084373  0.67704879    -0.10100
C1447       C  0.00383763  0.62039449  0.65570556    -0.10900
C1448       C  0.99830384  0.62816165  0.62768993     0.20600
C1449       C  0.99274868  0.65647251  0.62115758    -0.12900
C1450       C  0.99284387  0.67691764  0.64249475    -0.11200
C1451       C  0.99846571  0.60713339  0.60567689     0.01600
C1452       C  0.99870953  0.58936176  0.58740878    -0.31200
C1453       C  0.99889244  0.69033338  0.69236543     0.03000
C1454       C  0.99929232  0.70838818  0.71034854    -0.32900
H1455       H  0.00831498  0.63459380  0.69860760     0.14000
H1456       H  0.00815038  0.59857527  0.66102360     0.13800
H1457       H  0.98842944  0.66274045  0.59959137     0.13700
H1458       H  0.98860615  0.69874946  0.63716329     0.12700
C1459       C  0.00359926  0.32946569  0.17913990     0.19100
C1460       C  0.02848805  0.34240342  0.16984566    -0.10100
C1461       C  0.02780834  0.36119125  0.14705827    -0.10900
C1462       C  0.00225985  0.36701808  0.13338709     0.20600
C1463       C  0.97733503  0.35431349  0.14288294    -0.12900
C1464       C  0.97801132  0.33555404  0.16567237    -0.11200
C1465       C  0.00161846  0.38593863  0.10960113     0.01600
C1466       C  0.00106235  0.40233432  0.09013107    -0.31200
C1467       C  0.00453393  0.30841480  0.20103584     0.03000
C1468       C  0.00493930  0.28861053  0.21700818    -0.32900
H1469       H  0.04843359  0.33764294  0.17991363     0.14000
H1470       H  0.04720626  0.37092740  0.13992211     0.13800
H1471       H  0.95745981  0.35868507  0.13250228     0.13700
H1472       H  0.95868098  0.32546388  0.17249794     0.12700
C1473       C  0.00045515  0.18070776  0.33407344     0.19100
C1474       C  0.97600096  0.16440489  0.33717374    -0.10100
C1475       C  0.97570230  0.14153440  0.35582149    -0.10900
C1476       C  0.99988608  0.13482287  0.37139083     0.20600
C1477       C  0.02421457  0.15137264  0.36861801    -0.12900
C1478       C  0.02451797  0.17424526  0.34994828    -0.11200
C1479       C  0.99979032  0.11089256  0.39007101     0.01600
C1480       C  0.99973094  0.09124055  0.40621656    -0.31200
C1481       C  0.00156718  0.20229085  0.31275448     0.03000
C1482       C  0.00258945  0.21746645  0.29237413    -0.32900
H1483       H  0.95738107  0.16901817  0.32475926     0.14000
H1484       H  0.95677483  0.12889180  0.35782852     0.13800
H1485       H  0.04302039  0.14637400  0.38059222     0.13700
H1486       H  0.04363668  0.18650805  0.34747559     0.12700
C1487       C  0.00093492  0.36217858  0.36223929     0.19100
C1488       C  0.02504861  0.34542791  0.35877153    -0.10100
C1489       C  0.02583731  0.32467407  0.33772841    -0.10900
C1490       C  0.00252530  0.32055448  0.32000957     0.20600
C1491       C  0.97845045  0.33736562  0.32342728    -0.12900
C1492       C  0.97765885  0.35811159  0.34447154    -0.11200
C1493       C  0.00319180  0.29893523  0.29855239     0.01600
C1494       C  0.00365139  0.28060906  0.28082194    -0.31200
C1495       C  0.00006189  0.38348703  0.38399159     0.03000
C1496       C  0.99942652  0.40141953  0.40210861    -0.32900
H1497       H  0.04318834  0.34837008  0.37235286     0.14000
H1498       H  0.04456485  0.31180923  0.33532692     0.13800
H1499       H  0.96028594  0.33438495  0.30988993     0.13700
H1500       H  0.95890357  0.37092711  0.34692046     0.12700
loop_ 
_geom_bond_atom_site_label_1 
_geom_bond_atom_site_label_2 
_geom_bond_distance 
_geom_bond_site_symmetry_2 
_ccdc_geom_bond_type 
N1            C5   1.351       .  A
N1            C2   1.350       .  A
N1         C1494   1.408       .  S
C2            C3   1.380       .  A
C2         C1482   1.439       .  S
C3            C4   1.379       .  A
C3            H6   1.082       .  S
C4            C5   1.381       .  A
C4            H7   1.082       .  S
C5         C1468   1.439       .  S
O8          Zr44   2.443       .  S
O8           C19   1.291       .  A
O9          Zr43   2.444   1_455  S
O9           C20   1.291       .  A
O10         Zr16   2.428       .  S
O10          C21   1.289       .  A
O11         Zr16   2.431   1_455  S
O11          C22   1.289       .  A
O12         Zr46   2.448       .  S
O12          C22   1.293       .  A
O13         Zr45   2.453       .  S
O13          C21   1.293       .  A
O14         Zr16   2.443   1_455  S
O14          C20   1.291       .  A
O15         Zr16   2.442       .  S
O15          C19   1.291       .  A
Zr16         O17   2.339   1_655  S
Zr16         O18   2.340       .  S
Zr16         O26   2.340   1_655  S
Zr16         O24   2.343       .  S
O17         Zr43   2.340   1_455  S
O17         Zr46   2.344       .  S
O18         Zr44   2.340       .  S
O18         Zr45   2.343       .  S
C19        C1496   1.438       .  S
C20        C1424   1.439       .  S
C21        C1384   1.435       .  S
C22        C1368   1.434       .  S
H23          O24   0.966       .  S
O24         Zr43   2.343       .  S
O24         Zr45   2.347       .  S
H25          O26   0.966       .  S
O26         Zr44   2.342   1_455  S
O26         Zr46   2.345       .  S
O27         Zr43   2.443       .  S
O27          C50   1.291       .  A
O28         Zr44   2.446       .  S
O28          C51   1.292       .  A
O29         Zr45   2.448       .  S
O29          C52   1.293       .  A
O30         Zr46   2.452       .  S
O30          C53   1.293       .  A
O31         Zr46   2.451       .  S
O31          C54   1.293       .  A
O32         Zr45   2.448       .  S
O32          C55   1.293       .  A
O33         Zr47   2.430       .  S
O33          C56   1.289       .  A
O34         Zr47   2.433   1_455  S
O34          C57   1.289       .  A
O35         Zr45   2.451       .  S
O35          C56   1.293       .  A
O36         Zr46   2.449       .  S
O36          C57   1.293       .  A
O37         Zr43   2.430       .  S
O37          C52   1.289       .  A
O38         Zr44   2.431       .  S
O38          C55   1.289       .  A
O39         Zr44   2.429   1_455  S
O39          C54   1.289       .  A
O40         Zr43   2.430   1_455  S
O40          C53   1.289       .  A
O41         Zr47   2.439       .  S
O41          C50   1.290       .  A
O42         Zr47   2.439       .  S
O42          C51   1.290       .  A
Zr43         O49   2.339       .  S
Zr43         O61   2.344   1_655  S
Zr44         O48   2.340   1_655  S
Zr44         O59   2.341       .  S
Zr45         O49   2.344       .  S
Zr45         O59   2.347       .  S
Zr46         O48   2.344       .  S
Zr46         O61   2.347       .  S
Zr47         O48   2.338   1_655  S
Zr47         O49   2.339       .  S
Zr47         O61   2.342   1_655  S
Zr47         O59   2.343       .  S
C50        C1452   1.437       .  S
C51        C1438   1.439       .  S
C52        C1354   1.434       .  S
C53        C1312   1.436       .  S
C54        C1342   1.435       .  S
C55        C1326   1.435       .  S
C56        C1410   1.435       .  S
C57        C1396   1.436       .  S
H58          O59   0.966       .  S
H60          O61   0.966       .  S
N62          C66   1.350   1_655  A
N62          C63   1.350       .  A
N62        C1454   1.407       .  S
C63          C64   1.381   1_655  A
C63        C1298   1.439       .  S
C64          C65   1.379       .  A
C64          H67   1.082       .  S
C65          C66   1.381       .  A
C65          H68   1.082       .  S
C66        C1284   1.439       .  S
N69          C73   1.351       .  A
N69          C70   1.350       .  A
N69        C1440   1.408       .  S
C70          C71   1.380       .  A
C70        C1256   1.438       .  S
C71          C72   1.378       .  A
C71          H74   1.082       .  S
C72          C73   1.381       .  A
C72          H75   1.082       .  S
C73        C1270   1.439       .  S
N76          C80   1.351       .  A
N76          C77   1.351       .  A
N76        C1426   1.408       .  S
C77          C78   1.381       .  A
C77        C1242   1.440       .  S
C78          C79   1.379       .  A
C78          H81   1.082       .  S
C79          C80   1.381       .  A
C79          H82   1.082       .  S
C80        C1228   1.440       .  S
O83        Zr119   2.446   1_545  S
O83          C94   1.292   1_455  A
O84        Zr118   2.448   1_545  S
O84          C95   1.292       .  A
O85         Zr91   2.443       .  S
O85          C96   1.291       .  A
O86         Zr91   2.442   1_455  S
O86          C97   1.291       .  A
O87        Zr121   2.446   1_545  S
O87          C97   1.292       .  A
O88        Zr120   2.447   1_545  S
O88          C96   1.292       .  A
O89         Zr91   2.433       .  S
O89          C95   1.289       .  A
O90         Zr91   2.431       .  S
O90          C94   1.289       .  A
Zr91         O92   2.339   1_655  S
Zr91         O93   2.339       .  S
Zr91        O101   2.344   1_655  S
Zr91         O99   2.343       .  S
O92        Zr118   2.344   1_445  S
O92        Zr121   2.340   1_545  S
O93        Zr119   2.344   1_645  S
O93        Zr120   2.339   1_545  S
C94        C1480   1.433       .  S
C95        C1272   1.435   1_655  S
C96        C1200   1.441       .  S
C97        C1214   1.440       .  S
H98          O99   0.966       .  S
O99        Zr118   2.348   1_545  S
O99        Zr120   2.344   1_545  S
H100        O101   0.966       .  S
O101       Zr119   2.346   1_545  S
O101       Zr121   2.340   1_545  S
O102       Zr118   2.448       .  S
O102        C125   1.293       .  A
O103       Zr119   2.449       .  S
O103        C126   1.293       .  A
O104       Zr120   2.430       .  S
O104        C127   1.289       .  A
O105       Zr121   2.429       .  S
O105        C128   1.289       .  A
O106       Zr121   2.432       .  S
O106        C129   1.289       .  A
O107       Zr120   2.431       .  S
O107        C130   1.289       .  A
O108       Zr122   2.444       .  S
O108        C131   1.292       .  A
O109       Zr122   2.443   1_455  S
O109        C132   1.291       .  A
O110       Zr120   2.445       .  S
O110        C131   1.292       .  A
O111       Zr121   2.442       .  S
O111        C132   1.291       .  A
O112       Zr118   2.450       .  S
O112        C127   1.293       .  A
O113       Zr119   2.449   1_655  S
O113        C130   1.293       .  A
O114       Zr119   2.450       .  S
O114        C129   1.293       .  A
O115       Zr118   2.449   1_455  S
O115        C128   1.293       .  A
O116       Zr122   2.431       .  S
O116        C125   1.289       .  A
O117       Zr122   2.429   1_455  S
O117        C126   1.289       .  A
Zr118       O124   2.343       .  S
Zr118       O136   2.346   1_655  S
Zr119       O123   2.341       .  S
Zr119       O134   2.346   1_455  S
Zr120       O124   2.340       .  S
Zr120       O134   2.344       .  S
Zr121       O123   2.339       .  S
Zr121       O136   2.344       .  S
Zr122       O123   2.339   1_655  S
Zr122       O124   2.339       .  S
Zr122       O136   2.342   1_655  S
Zr122       O134   2.343       .  S
C125       C1300   1.435       .  S
C126       C1244   1.435       .  S
C127       C1116   1.435       .  S
C128       C1130   1.434       .  S
C129       C1144   1.436       .  S
C130       C1158   1.435       .  S
C131       C1186   1.440       .  S
C132       C1172   1.438       .  S
H133        O134   0.966       .  S
H135        O136   0.966       .  S
N137        C141   1.352       .  A
N137        C138   1.351       .  A
N137       C1216   1.408       .  S
C138        C139   1.381       .  A
C138       C1340   1.441       .  S
C139        C140   1.379       .  A
C139        H142   1.082       .  S
C140        C141   1.381       .  A
C140        H143   1.082       .  S
C141       C1104   1.441       .  S
N144        C148   1.352       .  A
N144        C145   1.351       .  A
N144       C1202   1.409       .  S
C145        C146   1.381       .  A
C145       C1328   1.440       .  S
C146        C147   1.378       .  A
C146        H149   1.082       .  S
C147        C148   1.381       .  A
C147        H150   1.082       .  S
C148       C1090   1.440       .  S
N151        C155   1.351       .  A
N151        C152   1.351       .  A
N151       C1188   1.408       .  S
C152        C153   1.381       .  A
C152       C1356   1.439       .  S
C153        C154   1.379       .  A
C153        H156   1.082       .  S
C154        C155   1.381       .  A
C154        H157   1.082       .  S
C155       C1074   1.440       .  S
N158        C162   1.351       .  A
N158        C159   1.352       .  A
N158       C1174   1.407       .  S
C159        C160   1.381       .  A
C159       C1314   1.441       .  S
C160        C161   1.378       .  A
C160        H163   1.082       .  S
C161        C162   1.381       .  A
C161        H164   1.082       .  S
C162       C1062   1.441       .  S
N165        C169   1.351       .  A
N165        C166   1.351   1_565  A
N165       C1046   1.408       .  S
C166        C167   1.381       .  A
C166       C1160   1.439       .  S
C167        C168   1.378       .  A
C167        H170   1.082       .  S
C168        C169   1.380   1_545  A
C168        H171   1.082       .  S
C169       C1034   1.439       .  S
O172       Zr208   2.451       .  S
O172        C183   1.293       .  A
O173       Zr207   2.452       .  S
O173        C184   1.293       .  A
O174       Zr180   2.446       .  S
O174        C185   1.292       .  A
O175       Zr180   2.445       .  S
O175        C186   1.292       .  A
O176       Zr210   2.445       .  S
O176        C186   1.292       .  A
O177       Zr209   2.442       .  S
O177        C185   1.291       .  A
O178       Zr180   2.431       .  S
O178        C184   1.289       .  A
O179       Zr180   2.434   1_545  S
O179        C183   1.290       .  A
Zr180       O181   2.341       .  S
Zr180       O182   2.339   1_565  S
Zr180       O190   2.344   1_565  S
Zr180       O188   2.344       .  S
O181       Zr207   2.344       .  S
O181       Zr210   2.340       .  S
O182       Zr208   2.343       .  S
O182       Zr209   2.340   1_545  S
C183       C1102   1.438       .  S
C184       C1060   1.436       .  S
C185        C992   1.439       .  S
C186       C1018   1.440       .  S
H187        O188   0.966       .  S
O188       Zr207   2.347       .  S
O188       Zr209   2.343       .  S
H189        O190   0.966       .  S
O190       Zr208   2.347       .  S
O190       Zr210   2.344   1_545  S
O191       Zr207   2.452       .  S
O191        C214   1.293       .  A
O192       Zr208   2.449       .  S
O192        C215   1.293       .  A
O193       Zr209   2.431       .  S
O193        C216   1.289       .  A
O194       Zr210   2.433       .  S
O194        C217   1.289       .  A
O195       Zr210   2.431   1_545  S
O195        C218   1.289       .  A
O196       Zr209   2.433   1_545  S
O196        C219   1.290       .  A
O197       Zr211   2.444       .  S
O197        C220   1.291       .  A
O198       Zr211   2.444       .  S
O198        C221   1.291       .  A
O199       Zr209   2.443       .  S
O199        C220   1.291       .  A
O200       Zr210   2.446       .  S
O200        C221   1.292       .  A
O201       Zr207   2.448       .  S
O201        C216   1.292       .  A
O202       Zr208   2.446       .  S
O202        C219   1.292       .  A
O203       Zr208   2.448       .  S
O203        C218   1.293       .  A
O204       Zr207   2.446       .  S
O204        C217   1.292       .  A
O205       Zr211   2.430       .  S
O205        C214   1.289       .  A
O206       Zr211   2.432   1_545  S
O206        C215   1.289       .  A
Zr207       O213   2.343       .  S
Zr207       O225   2.347       .  S
Zr208       O212   2.344       .  S
Zr208       O223   2.348       .  S
Zr209       O213   2.339       .  S
Zr209       O223   2.342   1_565  S
Zr210       O212   2.340   1_565  S
Zr210       O225   2.342       .  S
Zr211       O212   2.339   1_565  S
Zr211       O213   2.339       .  S
Zr211       O225   2.343       .  S
Zr211       O223   2.343   1_565  S
C214       C1076   1.435       .  S
C215       C1088   1.435       .  S
C216        C950   1.434       .  S
C217        C976   1.434       .  S
C218        C962   1.434       .  S
C219        C934   1.435       .  S
C220       C1048   1.439       .  S
C221       C1004   1.440       .  S
H222        O223   0.966       .  S
H224        O225   0.966       .  S
N226        C230   1.352       .  A
N226        C227   1.351       .  A
N226       C1020   1.408   1_545  S
C227        C228   1.380       .  A
C227       C1132   1.439       .  S
C228        C229   1.378       .  A
C228        H231   1.082       .  S
C229        C230   1.381       .  A
C229        H232   1.082       .  S
C230        C922   1.440       .  S
N233        C237   1.351       .  A
N233        C234   1.351       .  A
N233       C1006   1.408       .  S
C234        C235   1.381       .  A
C234       C1118   1.439       .  S
C235        C236   1.378       .  A
C235        H238   1.082       .  S
C236        C237   1.381       .  A
C236        H239   1.082       .  S
C237        C906   1.440       .  S
N240        C244   1.351       .  A
N240        C241   1.352       .  A
N240        C990   1.408       .  S
C241        C242   1.381       .  A
C241       C1146   1.441       .  S
C242        C243   1.379       .  A
C242        H245   1.082       .  S
C243        C244   1.381       .  A
C243        H246   1.082       .  S
C244        C892   1.441       .  S
O247       Zr283   2.446   1_554  S
O247        C258   1.292       .  A
O248       Zr282   2.449   1_554  S
O248        C259   1.293       .  A
O249       Zr255   2.438   1_545  S
O249        C260   1.290       .  A
O250       Zr255   2.439       .  S
O250        C261   1.290       .  A
O251       Zr285   2.445   1_554  S
O251        C261   1.292       .  A
O252       Zr284   2.443   1_554  S
O252        C260   1.291       .  A
O253       Zr255   2.431       .  S
O253        C259   1.289       .  A
O254       Zr255   2.432       .  S
O254        C258   1.289       .  A
Zr255       O256   2.338       .  S
Zr255       O257   2.339   1_565  S
Zr255       O265   2.341       .  S
Zr255       O263   2.342   1_565  S
O256       Zr282   2.343   1_554  S
O256       Zr285   2.337   1_554  S
O257       Zr283   2.343   1_544  S
O257       Zr284   2.339   1_554  S
C258       C1032   1.434       .  S
C259        C894   1.435       .  S
C260        C878   1.437       .  S
C261        C864   1.438       .  S
H262        O263   0.966       .  S
O263       Zr282   2.347   1_544  S
O263       Zr284   2.343   1_554  S
H264        O265   0.966       .  S
O265       Zr283   2.347   1_554  S
O265       Zr285   2.343   1_554  S
O266       Zr282   2.450       .  S
O266        C289   1.293       .  A
O267       Zr283   2.446       .  S
O267        C290   1.292       .  A
O268       Zr284   2.429       .  S
O268        C291   1.289       .  A
O269       Zr285   2.433       .  S
O269        C292   1.290       .  A
O270       Zr285   2.430       .  S
O270        C293   1.289       .  A
O271       Zr284   2.431       .  S
O271        C294   1.289       .  A
O272       Zr286   2.441   1_545  S
O272        C295   1.291       .  A
O273       Zr286   2.441       .  S
O273        C296   1.291       .  A
O274       Zr284   2.444       .  S
O274        C295   1.291       .  A
O275       Zr285   2.441       .  S
O275        C296   1.291       .  A
O276       Zr282   2.449   1_545  S
O276        C291   1.293       .  A
O277       Zr283   2.452   1_545  S
O277        C294   1.293       .  A
O278       Zr283   2.452       .  S
O278        C293   1.293       .  A
O279       Zr282   2.448       .  S
O279        C292   1.293       .  A
O280       Zr286   2.433       .  S
O280        C289   1.290       .  A
O281       Zr286   2.433       .  S
O281        C290   1.289       .  A
Zr282       O288   2.343   1_565  S
Zr282       O300   2.347       .  S
Zr283       O287   2.344       .  S
Zr283       O298   2.346   1_565  S
Zr284       O288   2.340       .  S
Zr284       O298   2.342       .  S
Zr285       O287   2.340       .  S
Zr285       O300   2.343       .  S
Zr286       O287   2.340       .  S
Zr286       O288   2.339   1_565  S
Zr286       O300   2.343       .  S
Zr286       O298   2.342   1_565  S
C289        C920   1.436       .  S
C290        C908   1.434       .  S
C291        C824   1.434       .  S
C292        C794   1.435       .  S
C293        C808   1.435       .  S
C294        C780   1.436       .  S
C295        C836   1.438       .  S
C296        C850   1.437       .  S
H297        O298   0.966       .  S
H299        O300   0.966       .  S
N301        C305   1.351       .  A
N301        C302   1.351       .  A
N301        C880   1.407       .  S
C302        C303   1.381       .  A
C302        C768   1.441       .  S
C303        C304   1.379       .  A
C303        H306   1.082       .  S
C304        C305   1.380       .  A
C304        H307   1.082       .  S
C305        C936   1.440       .  S
N308        C312   1.350       .  A
N308        C309   1.351       .  A
N308        C866   1.407       .  S
C309        C310   1.381       .  A
C309        C754   1.439       .  S
C310        C311   1.379       .  A
C310        H313   1.082       .  S
C311        C312   1.381       .  A
C311        H314   1.082       .  S
C312        C948   1.439       .  S
N315        C319   1.350       .  A
N315        C316   1.350       .  A
N315        C852   1.407       .  S
C316        C317   1.380       .  A
C316        C738   1.438       .  S
C317        C318   1.378       .  A
C317        H320   1.082       .  S
C318        C319   1.381       .  A
C318        H321   1.082       .  S
C319        C978   1.438       .  S
N322        C326   1.351       .  A
N322        C323   1.351       .  A
N322        C838   1.408       .  S
C323        C324   1.380       .  A
C323        C724   1.439       .  S
C324        C325   1.378       .  A
C324        H327   1.082       .  S
C325        C326   1.381       .  A
C325        H328   1.082       .  S
C326        C964   1.439       .  S
O329       Zr365   2.450   1_554  S
O329        C340   1.293       .  A
O330       Zr364   2.449   1_554  S
O330        C341   1.293       .  A
O331       Zr337   2.446   1_455  S
O331        C342   1.292       .  A
O332       Zr337   2.443       .  S
O332        C343   1.291       .  A
O333       Zr367   2.442   1_554  S
O333        C343   1.291       .  A
O334       Zr366   2.441   1_554  S
O334        C342   1.291       .  A
O335       Zr337   2.433       .  S
O335        C341   1.289       .  A
O336       Zr337   2.430   1_455  S
O336        C340   1.289       .  A
Zr337       O338   2.340       .  S
Zr337       O339   2.340   1_655  S
Zr337       O347   2.345       .  S
Zr337       O345   2.341   1_655  S
O338       Zr364   2.343   1_554  S
O338       Zr367   2.341   1_554  S
O339       Zr365   2.344   1_554  S
O339       Zr366   2.339   1_554  S
C340       C1466   1.435       .  S
C341       C1230   1.436       .  S
C342        C698   1.439       .  S
C343        C710   1.438       .  S
H344        O345   0.966       .  S
O345       Zr364   2.347   1_454  S
O345       Zr366   2.344   1_554  S
H346        O347   0.966       .  S
O347       Zr365   2.345   1_654  S
O347       Zr367   2.343   1_554  S
O348       Zr364   2.449   1_455  S
O348        C371   1.293       .  A
O349       Zr365   2.448       .  S
O349        C372   1.293       .  A
O350       Zr366   2.430       .  S
O350        C373   1.289       .  A
O351       Zr367   2.430       .  S
O351        C374   1.289       .  A
O352       Zr367   2.432       .  S
O352        C375   1.289       .  A
O353       Zr366   2.435       .  S
O353        C376   1.290       .  A
O354       Zr368   2.445       .  S
O354        C377   1.291       .  A
O355       Zr368   2.443   1_655  S
O355        C378   1.291       .  A
O356       Zr366   2.442       .  S
O356        C377   1.291       .  A
O357       Zr367   2.444       .  S
O357        C378   1.291       .  A
O358       Zr364   2.449   1_455  S
O358        C373   1.293       .  A
O359       Zr365   2.447       .  S
O359        C376   1.292       .  A
O360       Zr365   2.452   1_655  S
O360        C375   1.293       .  A
O361       Zr364   2.452       .  S
O361        C374   1.293       .  A
O362       Zr368   2.431       .  S
O362        C371   1.289       .  A
O363       Zr368   2.428       .  S
O363        C372   1.289       .  A
Zr364       O370   2.345   1_655  S
Zr364       O382   2.346       .  S
Zr365       O369   2.343   1_455  S
Zr365       O380   2.348       .  S
Zr366       O370   2.341       .  S
Zr366       O380   2.341       .  S
Zr367       O369   2.337       .  S
Zr367       O382   2.343       .  S
Zr368       O369   2.340   1_455  S
Zr368       O370   2.338       .  S
Zr368       O382   2.342   1_455  S
Zr368       O380   2.342       .  S
C371       C1286   1.435       .  S
C372       C1258   1.433       .  S
C373        C640   1.434       .  S
C374        C614   1.436       .  S
C375        C626   1.437       .  S
C376        C656   1.436       .  S
C377        C682   1.439       .  S
C378        C670   1.439       .  S
H379        O380   0.966       .  S
H381        O382   0.966       .  S
N383        C387   1.351       .  A
N383        C384   1.351       .  A
N383        C712   1.407       .  S
C384        C385   1.381       .  A
C384        C600   1.440       .  S
C385        C386   1.379       .  A
C385        H388   1.082       .  S
C386        C387   1.381       .  A
C386        H389   1.082       .  S
C387       C1382   1.440       .  S
N390        C394   1.351       .  A
N390        C391   1.351       .  A
N390        C696   1.407       .  S
C391        C392   1.381       .  A
C391        C584   1.440       .  S
C392        C393   1.379       .  A
C392        H395   1.082       .  S
C393        C394   1.381       .  A
C393        H396   1.082       .  S
C394       C1370   1.440       .  S
N397        C401   1.351       .  A
N397        C398   1.352       .  A
N397        C684   1.407       .  S
C398        C399   1.381       .  A
C398       C1398   1.441       .  S
C399        C400   1.379       .  A
C399        H402   1.082       .  S
C400        C401   1.381       .  A
C400        H403   1.082       .  S
C401        C570   1.441       .  S
N404        C408   1.351       .  A
N404        C405   1.351       .  A
N404        C668   1.408       .  S
C405        C406   1.380       .  A
C405        C556   1.439       .  S
C406        C407   1.378       .  A
C406        H409   1.082       .  S
C407        C408   1.380       .  A
C407        H410   1.082       .  S
C408       C1412   1.439       .  S
N411        C415   1.352       .  A
N411        C412   1.352       .  A
N411        C542   1.409       .  S
C412        C413   1.381       .  A
C412        C822   1.439       .  S
C413        C414   1.378       .  A
C413        H416   1.082       .  S
C414        C415   1.381       .  A
C414        H417   1.082       .  S
C415        C654   1.440       .  S
O418       Zr454   2.453       .  S
O418        C429   1.293       .  A
O419       Zr453   2.446       .  S
O419        C430   1.292       .  A
O420       Zr426   2.447       .  S
O420        C431   1.292       .  A
O421       Zr426   2.444       .  S
O421        C432   1.291       .  A
O422       Zr456   2.438       .  S
O422        C432   1.290       .  A
O423       Zr455   2.447       .  S
O423        C431   1.292       .  A
O424       Zr426   2.430       .  S
O424        C430   1.289       .  A
O425       Zr426   2.429   1_554  S
O425        C429   1.289       .  A
Zr426       O427   2.338       .  S
Zr426       O428   2.338   1_556  S
Zr426       O436   2.345   1_556  S
Zr426       O434   2.343       .  S
O427       Zr453   2.342       .  S
O427       Zr456   2.339       .  S
O428       Zr454   2.342       .  S
O428       Zr455   2.338   1_554  S
C429        C766   1.436       .  S
C430        C726   1.433       .  S
C431        C544   1.442       .  S
C432        C500   1.437       .  S
H433        O434   0.966       .  S
O434       Zr453   2.346       .  S
O434       Zr455   2.343       .  S
H435        O436   0.966       .  S
O436       Zr454   2.346       .  S
O436       Zr456   2.345   1_554  S
O437       Zr453   2.445       .  S
O437        C460   1.292       .  A
O438       Zr454   2.448       .  S
O438        C461   1.293       .  A
O439       Zr455   2.431       .  S
O439        C462   1.289       .  A
O440       Zr456   2.433       .  S
O440        C463   1.290       .  A
O441       Zr456   2.433   1_554  S
O441        C464   1.290       .  A
O442       Zr455   2.431   1_554  S
O442        C465   1.289       .  A
O443       Zr457   2.444       .  S
O443        C466   1.292       .  A
O444       Zr457   2.448       .  S
O444        C467   1.292       .  A
O445       Zr455   2.443       .  S
O445        C466   1.291       .  A
O446       Zr456   2.443       .  S
O446        C467   1.291       .  A
O447       Zr453   2.451       .  S
O447        C462   1.293       .  A
O448       Zr454   2.450       .  S
O448        C465   1.293       .  A
O449       Zr454   2.449       .  S
O449        C464   1.293       .  A
O450       Zr453   2.447       .  S
O450        C463   1.292       .  A
O451       Zr457   2.430       .  S
O451        C460   1.289       .  A
O452       Zr457   2.430   1_554  S
O452        C461   1.289       .  A
Zr453       O459   2.342       .  S
Zr453       O471   2.349       .  S
Zr454       O458   2.344       .  S
Zr454       O469   2.347       .  S
Zr455       O459   2.340       .  S
Zr455       O469   2.344   1_556  S
Zr456       O458   2.337   1_556  S
Zr456       O471   2.343       .  S
Zr457       O458   2.338   1_556  S
Zr457       O459   2.340       .  S
Zr457       O471   2.343       .  S
Zr457       O469   2.345   1_556  S
C460        C740   1.432       .  S
C461        C752   1.434       .  S
C462        C572   1.436       .  S
C463        C558   1.435       .  S
C464        C598   1.436       .  S
C465        C586   1.436       .  S
C466        C514   1.439       .  S
C467        C530   1.441       .  S
H468        O469   0.966       .  S
H470        O471   0.966       .  S
N472        C476   1.351   1_556  A
N472        C473   1.351   1_556  A
N472        C528   1.408       .  S
C473        C474   1.381       .  A
C473        C612   1.440       .  S
C474        C475   1.379       .  A
C474        H477   1.082       .  S
C475        C476   1.381       .  A
C475        H478   1.082       .  S
C476        C810   1.440   1_554  S
N479        C483   1.351       .  A
N479        C480   1.351       .  A
N479        C516   1.408       .  S
C480        C481   1.381       .  A
C480        C796   1.439       .  S
C481        C482   1.378       .  A
C481        H484   1.082       .  S
C482        C483   1.381       .  A
C482        H485   1.082       .  S
C483        C642   1.439       .  S
N486        C490   1.351       .  A
N486        C487   1.352       .  A
N486        C502   1.407       .  S
C487        C488   1.381       .  A
C487        C628   1.442       .  S
C488        C489   1.379       .  A
C488        H491   1.082       .  S
C489        C490   1.381       .  A
C489        H492   1.082       .  S
C490        C782   1.442       .  S
C493        C494   1.402       .  A
C493        C498   1.402       .  A
C493        C501   1.442       .  S
C494        C495   1.400   1_556  A
C494        H503   1.083   1_556  S
C495        C496   1.402   1_554  A
C495        H504   1.083       .  S
C496        C497   1.401       .  A
C496        C499   1.442       .  S
C497        C498   1.400       .  A
C497        H505   1.083       .  S
C498        H506   1.083       .  S
C499        C500   1.207       .  T
C501        C502   1.207       .  T
C507        C508   1.402   1_556  A
C507        C512   1.402       .  A
C507        C515   1.443       .  S
C508        C509   1.401   1_554  A
C508        H517   1.083       .  S
C509        C510   1.402       .  A
C509        H518   1.083   1_556  S
C510        C511   1.402       .  A
C510        C513   1.443       .  S
C511        C512   1.400       .  A
C511        H519   1.083       .  S
C512        H520   1.083       .  S
C513        C514   1.208       .  T
C515        C516   1.208       .  T
C521        C522   1.402       .  A
C521        C526   1.403       .  A
C521        C529   1.445       .  S
C522        C523   1.401       .  A
C522        H531   1.083       .  S
C523        C524   1.402       .  A
C523        H532   1.083       .  S
C524        C525   1.402       .  A
C524        C527   1.444       .  S
C525        C526   1.401       .  A
C525        H533   1.084       .  S
C526        H534   1.083       .  S
C527        C528   1.209       .  T
C529        C530   1.209       .  T
C535        C536   1.403       .  A
C535        C540   1.403       .  A
C535        C543   1.447       .  S
C536        C537   1.402       .  A
C536        H545   1.083       .  S
C537        C538   1.402       .  A
C537        H546   1.083       .  S
C538        C539   1.402       .  A
C538        C541   1.446       .  S
C539        C540   1.402       .  A
C539        H547   1.083       .  S
C540        H548   1.083       .  S
C541        C542   1.210       .  T
C543        C544   1.210       .  T
C549        C550   1.400       .  A
C549        C554   1.402       .  A
C549        C557   1.440       .  S
C550        C551   1.398       .  A
C550        H559   1.083       .  S
C551        C552   1.402       .  A
C551        H560   1.084       .  S
C552        C553   1.401       .  A
C552        C555   1.440       .  S
C553        C554   1.400       .  A
C553        H561   1.083       .  S
C554        H562   1.083       .  S
C555        C556   1.205       .  T
C557        C558   1.206       .  T
C563        C564   1.402       .  A
C563        C568   1.401       .  A
C563        C571   1.441       .  S
C564        C565   1.400       .  A
C564        H573   1.083       .  S
C565        C566   1.401       .  A
C565        H574   1.083       .  S
C566        C567   1.402       .  A
C566        C569   1.441       .  S
C567        C568   1.399       .  A
C567        H575   1.084       .  S
C568        H576   1.083       .  S
C569        C570   1.206       .  T
C571        C572   1.207       .  T
C577        C578   1.402       .  A
C577        C582   1.401       .  A
C577        C585   1.441       .  S
C578        C579   1.400       .  A
C578        H587   1.083       .  S
C579        C580   1.402       .  A
C579        H588   1.083       .  S
C580        C581   1.401       .  A
C580        C583   1.440       .  S
C581        C582   1.399       .  A
C581        H589   1.083       .  S
C582        H590   1.083       .  S
C583        C584   1.206       .  T
C585        C586   1.207       .  T
C591        C592   1.401       .  A
C591        C596   1.402       .  A
C591        C599   1.440       .  S
C592        C593   1.401       .  A
C592        H601   1.083       .  S
C593        C594   1.403       .  A
C593        H602   1.083       .  S
C594        C595   1.400       .  A
C594        C597   1.441       .  S
C595        C596   1.398       .  A
C595        H603   1.083       .  S
C596        H604   1.084       .  S
C597        C598   1.207       .  T
C599        C600   1.206       .  T
C605        C606   1.400   1_556  A
C605        C610   1.403       .  A
C605        C613   1.441       .  S
C606        C607   1.398       .  A
C606        H615   1.083       .  S
C607        C608   1.402       .  A
C607        H616   1.084       .  S
C608        C609   1.401   1_554  A
C608        C611   1.440       .  S
C609        C610   1.401       .  A
C609        H617   1.083       .  S
C610        H618   1.083       .  S
C611        C612   1.206       .  T
C613        C614   1.207       .  T
C619        C620   1.402       .  A
C619        C624   1.401   1_556  A
C619        C627   1.442       .  S
C620        C621   1.400       .  A
C620        H629   1.083       .  S
C621        C622   1.401       .  A
C621        H630   1.083       .  S
C622        C623   1.402   1_556  A
C622        C625   1.442       .  S
C623        C624   1.400       .  A
C623        H631   1.083       .  S
C624        H632   1.083       .  S
C625        C626   1.207       .  T
C627        C628   1.207       .  T
C633        C634   1.401       .  A
C633        C638   1.401   1_556  A
C633        C641   1.439       .  S
C634        C635   1.397       .  A
C634        H643   1.084       .  S
C635        C636   1.400       .  A
C635        H644   1.083       .  S
C636        C637   1.402   1_556  A
C636        C639   1.439       .  S
C637        C638   1.400       .  A
C637        H645   1.083       .  S
C638        H646   1.083       .  S
C639        C640   1.205       .  T
C641        C642   1.205       .  T
C647        C648   1.400       .  A
C647        C652   1.403       .  A
C647        C655   1.441       .  S
C648        C649   1.398       .  A
C648        H657   1.083       .  S
C649        C650   1.402       .  A
C649        H658   1.084       .  S
C650        C651   1.401       .  A
C650        C653   1.440       .  S
C651        C652   1.401       .  A
C651        H659   1.083       .  S
C652        H660   1.083       .  S
C653        C654   1.206       .  T
C655        C656   1.207       .  T
C661        C662   1.402       .  A
C661        C666   1.402       .  A
C661        C669   1.444       .  S
C662        C663   1.401       .  A
C662        H671   1.083       .  S
C663        C664   1.402       .  A
C663        H672   1.083       .  S
C664        C665   1.402       .  A
C664        C667   1.444       .  S
C665        C666   1.401       .  A
C665        H673   1.083       .  S
C666        H674   1.083       .  S
C667        C668   1.208       .  T
C669        C670   1.208       .  T
C675        C676   1.402       .  A
C675        C680   1.402       .  A
C675        C683   1.443       .  S
C676        C677   1.401       .  A
C676        H685   1.083       .  S
C677        C678   1.402       .  A
C677        H686   1.083       .  S
C678        C679   1.402       .  A
C678        C681   1.443       .  S
C679        C680   1.400       .  A
C679        H687   1.083       .  S
C680        H688   1.083       .  S
C681        C682   1.208       .  T
C683        C684   1.208       .  T
C689        C690   1.402       .  A
C689        C694   1.402       .  A
C689        C697   1.444       .  S
C690        C691   1.400       .  A
C690        H699   1.083       .  S
C691        C692   1.402       .  A
C691        H700   1.083       .  S
C692        C693   1.402       .  A
C692        C695   1.443       .  S
C693        C694   1.400       .  A
C693        H701   1.083       .  S
C694        H702   1.083       .  S
C695        C696   1.208       .  T
C697        C698   1.208       .  T
C703        C704   1.402       .  A
C703        C708   1.402       .  A
C703        C711   1.442       .  S
C704        C705   1.400       .  A
C704        H713   1.083       .  S
C705        C706   1.402       .  A
C705        H714   1.083       .  S
C706        C707   1.402       .  A
C706        C709   1.443       .  S
C707        C708   1.400       .  A
C707        H715   1.083       .  S
C708        H716   1.083       .  S
C709        C710   1.208       .  T
C711        C712   1.208       .  T
C717        C718   1.401       .  A
C717        C722   1.401       .  A
C717        C725   1.438       .  S
C718        C719   1.399       .  A
C718        H727   1.083       .  S
C719        C720   1.401       .  A
C719        H728   1.083       .  S
C720        C721   1.401       .  A
C720        C723   1.438       .  S
C721        C722   1.398       .  A
C721        H729   1.083       .  S
C722        H730   1.083       .  S
C723        C724   1.205       .  T
C725        C726   1.205       .  T
C731        C732   1.401       .  A
C731        C736   1.401       .  A
C731        C739   1.438       .  S
C732        C733   1.398       .  A
C732        H741   1.083       .  S
C733        C734   1.401       .  A
C733        H742   1.083       .  S
C734        C735   1.401       .  A
C734        C737   1.438       .  S
C735        C736   1.399       .  A
C735        H743   1.083       .  S
C736        H744   1.083       .  S
C737        C738   1.204       .  T
C739        C740   1.205       .  T
C745        C746   1.401       .  A
C745        C750   1.401       .  A
C745        C753   1.439       .  S
C746        C747   1.398       .  A
C746        H755   1.083       .  S
C747        C748   1.401       .  A
C747        H756   1.084       .  S
C748        C749   1.401       .  A
C748        C751   1.439       .  S
C749        C750   1.399       .  A
C749        H757   1.083       .  S
C750        H758   1.083       .  S
C751        C752   1.205       .  T
C753        C754   1.205       .  T
C759        C760   1.402       .  A
C759        C764   1.401       .  A
C759        C767   1.441       .  S
C760        C761   1.399       .  A
C760        H769   1.084       .  S
C761        C762   1.401       .  A
C761        H770   1.083       .  S
C762        C763   1.402       .  A
C762        C765   1.441       .  S
C763        C764   1.400       .  A
C763        H771   1.083       .  S
C764        H772   1.083       .  S
C765        C766   1.207       .  T
C767        C768   1.206       .  T
C773        C774   1.402   1_556  A
C773        C778   1.401       .  A
C773        C781   1.442       .  S
C774        C775   1.399       .  A
C774        H783   1.084       .  S
C775        C776   1.400   1_554  A
C775        H784   1.083       .  S
C776        C777   1.403       .  A
C776        C779   1.442       .  S
C777        C778   1.401       .  A
C777        H785   1.083       .  S
C778        H786   1.083       .  S
C779        C780   1.207       .  T
C781        C782   1.207       .  T
C787        C788   1.401       .  A
C787        C792   1.401   1_556  A
C787        C795   1.440       .  S
C788        C789   1.399       .  A
C788        H797   1.083       .  S
C789        C790   1.401       .  A
C789        H798   1.083       .  S
C790        C791   1.401   1_556  A
C790        C793   1.440       .  S
C791        C792   1.399       .  A
C791        H799   1.083       .  S
C792        H800   1.083       .  S
C793        C794   1.206       .  T
C795        C796   1.205       .  T
C801        C802   1.401   1_556  A
C801        C806   1.402       .  A
C801        C809   1.440       .  S
C802        C803   1.400       .  A
C802        H811   1.083       .  S
C803        C804   1.402   1_554  A
C803        H812   1.083       .  S
C804        C805   1.401       .  A
C804        C807   1.440       .  S
C805        C806   1.399       .  A
C805        H813   1.083       .  S
C806        H814   1.084       .  S
C807        C808   1.206       .  T
C809        C810   1.206       .  T
C815        C816   1.401   1_556  A
C815        C820   1.401       .  A
C815        C823   1.440       .  S
C816        C817   1.399       .  A
C816        H825   1.083       .  S
C817        C818   1.402   1_554  A
C817        H826   1.083       .  S
C818        C819   1.401       .  A
C818        C821   1.440       .  S
C819        C820   1.399       .  A
C819        H827   1.083       .  S
C820        H828   1.084       .  S
C821        C822   1.206       .  T
C823        C824   1.206       .  T
C829        C830   1.402       .  A
C829        C834   1.402       .  A
C829        C837   1.443       .  S
C830        C831   1.400       .  A
C830        H839   1.083       .  S
C831        C832   1.402       .  A
C831        H840   1.083       .  S
C832        C833   1.402       .  A
C832        C835   1.443       .  S
C833        C834   1.400       .  A
C833        H841   1.083       .  S
C834        H842   1.083       .  S
C835        C836   1.208       .  T
C837        C838   1.208       .  T
C843        C844   1.402       .  A
C843        C848   1.402       .  A
C843        C851   1.442       .  S
C844        C845   1.400       .  A
C844        H853   1.083       .  S
C845        C846   1.402       .  A
C845        H854   1.083       .  S
C846        C847   1.402       .  A
C846        C849   1.442       .  S
C847        C848   1.400       .  A
C847        H855   1.083       .  S
C848        H856   1.083       .  S
C849        C850   1.207       .  T
C851        C852   1.207       .  T
C857        C858   1.402       .  A
C857        C862   1.402       .  A
C857        C865   1.443       .  S
C858        C859   1.400       .  A
C858        H867   1.083       .  S
C859        C860   1.401       .  A
C859        H868   1.083       .  S
C860        C861   1.402       .  A
C860        C863   1.443       .  S
C861        C862   1.401       .  A
C861        H869   1.083       .  S
C862        H870   1.083       .  S
C863        C864   1.208       .  T
C865        C866   1.208       .  T
C871        C872   1.402       .  A
C871        C876   1.401       .  A
C871        C879   1.442       .  S
C872        C873   1.401       .  A
C872        H881   1.083       .  S
C873        C874   1.402       .  A
C873        H882   1.083       .  S
C874        C875   1.401       .  A
C874        C877   1.442       .  S
C875        C876   1.399       .  A
C875        H883   1.083       .  S
C876        H884   1.083       .  S
C877        C878   1.207       .  T
C879        C880   1.207       .  T
C885        C886   1.401       .  A
C885        C890   1.402   1_565  A
C885        C893   1.440       .  S
C886        C887   1.399       .  A
C886        H895   1.083       .  S
C887        C888   1.402       .  A
C887        H896   1.083       .  S
C888        C889   1.401   1_565  A
C888        C891   1.440       .  S
C889        C890   1.399       .  A
C889        H897   1.083       .  S
C890        H898   1.083       .  S
C891        C892   1.206       .  T
C893        C894   1.206       .  T
C899        C900   1.401   1_565  A
C899        C904   1.401       .  A
C899        C907   1.439       .  S
C900        C901   1.399       .  A
C900        H909   1.083       .  S
C901        C902   1.402   1_545  A
C901        H910   1.083       .  S
C902        C903   1.401       .  A
C902        C905   1.440       .  S
C903        C904   1.399       .  A
C903        H911   1.083       .  S
C904        H912   1.083       .  S
C905        C906   1.206       .  T
C907        C908   1.206       .  T
C913        C914   1.401   1_565  A
C913        C918   1.402       .  A
C913        C921   1.440       .  S
C914        C915   1.400       .  A
C914        H923   1.083       .  S
C915        C916   1.402   1_545  A
C915        H924   1.083       .  S
C916        C917   1.401       .  A
C916        C919   1.441       .  S
C917        C918   1.399       .  A
C917        H925   1.083       .  S
C918        H926   1.084       .  S
C919        C920   1.207       .  T
C921        C922   1.206   1_565  T
C927        C928   1.401       .  A
C927        C932   1.401       .  A
C927        C935   1.440       .  S
C928        C929   1.399       .  A
C928        H937   1.083       .  S
C929        C930   1.401       .  A
C929        H938   1.083       .  S
C930        C931   1.401       .  A
C930        C933   1.440       .  S
C931        C932   1.399       .  A
C931        H939   1.083       .  S
C932        H940   1.083       .  S
C933        C934   1.206       .  T
C935        C936   1.206       .  T
C941        C942   1.401       .  A
C941        C946   1.401       .  A
C941        C949   1.439       .  S
C942        C943   1.399       .  A
C942        H951   1.083       .  S
C943        C944   1.401       .  A
C943        H952   1.083       .  S
C944        C945   1.401       .  A
C944        C947   1.439       .  S
C945        C946   1.399       .  A
C945        H953   1.083       .  S
C946        H954   1.083       .  S
C947        C948   1.205       .  T
C949        C950   1.206       .  T
C955        C956   1.401       .  A
C955        C960   1.402       .  A
C955        C963   1.439       .  S
C956        C957   1.398       .  A
C956        H965   1.083       .  S
C957        C958   1.401       .  A
C957        H966   1.083       .  S
C958        C959   1.402       .  A
C958        C961   1.439       .  S
C959        C960   1.399       .  A
C959        H967   1.083       .  S
C960        H968   1.083       .  S
C961        C962   1.206       .  T
C963        C964   1.205       .  T
C969        C970   1.401       .  A
C969        C974   1.402       .  A
C969        C977   1.438       .  S
C970        C971   1.399       .  A
C970        H979   1.083       .  S
C971        C972   1.402       .  A
C971        H980   1.083       .  S
C972        C973   1.400       .  A
C972        C975   1.439       .  S
C973        C974   1.398       .  A
C973        H981   1.083       .  S
C974        H982   1.084       .  S
C975        C976   1.206       .  T
C977        C978   1.205       .  T
C983        C984   1.402       .  A
C983        C988   1.402   1_565  A
C983        C991   1.444       .  S
C984        C985   1.400       .  A
C984        H993   1.083       .  S
C985        C986   1.402       .  A
C985        H994   1.083       .  S
C986        C987   1.402   1_565  A
C986        C989   1.443       .  S
C987        C988   1.401       .  A
C987        H995   1.084       .  S
C988        H996   1.083       .  S
C989        C990   1.208       .  T
C991        C992   1.208       .  T
C997        C998   1.402   1_565  A
C997       C1002   1.402       .  A
C997       C1005   1.444       .  S
C998        C999   1.401       .  A
C998       H1007   1.083       .  S
C999       C1000   1.402   1_545  A
C999       H1008   1.083       .  S
C1000      C1001   1.402       .  A
C1000      C1003   1.445       .  S
C1001      C1002   1.401       .  A
C1001      H1009   1.083       .  S
C1002      H1010   1.083       .  S
C1003      C1004   1.209       .  T
C1005      C1006   1.209       .  T
C1011      C1012   1.402   1_565  A
C1011      C1016   1.402       .  A
C1011      C1019   1.445       .  S
C1012      C1013   1.401   1_545  A
C1012      H1021   1.083       .  S
C1013      C1014   1.402       .  A
C1013      H1022   1.083   1_565  S
C1014      C1015   1.402       .  A
C1014      C1017   1.445       .  S
C1015      C1016   1.401       .  A
C1015      H1023   1.083       .  S
C1016      H1024   1.083       .  S
C1017      C1018   1.209       .  T
C1019      C1020   1.209       .  T
C1025      C1026   1.401   1_565  A
C1025      C1030   1.402       .  A
C1025      C1033   1.439       .  S
C1026      C1027   1.399       .  A
C1026      H1035   1.083       .  S
C1027      C1028   1.402   1_545  A
C1027      H1036   1.083       .  S
C1028      C1029   1.401       .  A
C1028      C1031   1.439       .  S
C1029      C1030   1.399       .  A
C1029      H1037   1.083       .  S
C1030      H1038   1.083       .  S
C1031      C1032   1.206       .  T
C1033      C1034   1.205       .  T
C1039      C1040   1.402       .  A
C1039      C1044   1.402       .  A
C1039      C1047   1.444       .  S
C1040      C1041   1.401       .  A
C1040      H1049   1.083       .  S
C1041      C1042   1.402       .  A
C1041      H1050   1.083       .  S
C1042      C1043   1.402       .  A
C1042      C1045   1.444       .  S
C1043      C1044   1.401       .  A
C1043      H1051   1.083       .  S
C1044      H1052   1.083       .  S
C1045      C1046   1.209       .  T
C1047      C1048   1.209       .  T
C1053      C1054   1.402       .  A
C1053      C1058   1.401       .  A
C1053      C1061   1.441       .  S
C1054      C1055   1.398       .  A
C1054      H1063   1.084       .  S
C1055      C1056   1.400       .  A
C1055      H1064   1.083       .  S
C1056      C1057   1.403       .  A
C1056      C1059   1.441       .  S
C1057      C1058   1.401       .  A
C1057      H1065   1.083       .  S
C1058      H1066   1.083       .  S
C1059      C1060   1.207       .  T
C1061      C1062   1.206       .  T
C1067      C1068   1.403       .  A
C1067      C1072   1.400       .  A
C1067      C1075   1.440       .  S
C1068      C1069   1.401       .  A
C1068      H1077   1.083       .  S
C1069      C1070   1.401       .  A
C1069      H1078   1.083       .  S
C1070      C1071   1.402       .  A
C1070      C1073   1.440       .  S
C1071      C1072   1.397       .  A
C1071      H1079   1.084       .  S
C1072      H1080   1.083       .  S
C1073      C1074   1.206       .  T
C1075      C1076   1.206       .  T
C1081      C1082   1.402       .  A
C1081      C1086   1.401       .  A
C1081      C1089   1.440       .  S
C1082      C1083   1.399       .  A
C1082      H1091   1.084       .  S
C1083      C1084   1.400       .  A
C1083      H1092   1.083       .  S
C1084      C1085   1.402       .  A
C1084      C1087   1.440       .  S
C1085      C1086   1.400       .  A
C1085      H1093   1.083       .  S
C1086      H1094   1.083       .  S
C1087      C1088   1.206       .  T
C1089      C1090   1.206       .  T
C1095      C1096   1.401       .  A
C1095      C1100   1.402       .  A
C1095      C1103   1.442       .  S
C1096      C1097   1.400       .  A
C1096      H1105   1.083       .  S
C1097      C1098   1.402       .  A
C1097      H1106   1.083       .  S
C1098      C1099   1.402       .  A
C1098      C1101   1.443       .  S
C1099      C1100   1.400       .  A
C1099      H1107   1.083       .  S
C1100      H1108   1.083       .  S
C1101      C1102   1.208       .  T
C1103      C1104   1.207       .  T
C1109      C1110   1.402       .  A
C1109      C1114   1.401   1_565  A
C1109      C1117   1.439       .  S
C1110      C1111   1.397       .  A
C1110      H1119   1.084       .  S
C1111      C1112   1.400       .  A
C1111      H1120   1.083       .  S
C1112      C1113   1.403   1_565  A
C1112      C1115   1.440       .  S
C1113      C1114   1.400       .  A
C1113      H1121   1.083       .  S
C1114      H1122   1.083       .  S
C1115      C1116   1.206       .  T
C1117      C1118   1.205       .  T
C1123      C1124   1.401   1_565  A
C1123      C1128   1.402       .  A
C1123      C1131   1.439       .  S
C1124      C1125   1.400       .  A
C1124      H1133   1.083       .  S
C1125      C1126   1.403   1_545  A
C1125      H1134   1.083       .  S
C1126      C1127   1.400       .  A
C1126      C1129   1.439       .  S
C1127      C1128   1.398       .  A
C1127      H1135   1.083       .  S
C1128      H1136   1.084       .  S
C1129      C1130   1.205       .  T
C1131      C1132   1.205   1_565  T
C1137      C1138   1.402       .  A
C1137      C1142   1.401   1_565  A
C1137      C1145   1.441       .  S
C1138      C1139   1.400       .  A
C1138      H1147   1.083       .  S
C1139      C1140   1.401       .  A
C1139      H1148   1.083       .  S
C1140      C1141   1.402   1_565  A
C1140      C1143   1.442       .  S
C1141      C1142   1.400       .  A
C1141      H1149   1.083       .  S
C1142      H1150   1.083       .  S
C1143      C1144   1.207       .  T
C1145      C1146   1.207       .  T
C1151      C1152   1.401   1_545  A
C1151      C1156   1.402       .  A
C1151      C1159   1.440       .  S
C1152      C1153   1.401       .  A
C1152      H1161   1.083       .  S
C1153      C1154   1.403       .  A
C1153      H1162   1.083       .  S
C1154      C1155   1.400       .  A
C1154      C1157   1.440       .  S
C1155      C1156   1.397   1_565  A
C1155      H1163   1.084       .  S
C1156      H1164   1.084       .  S
C1157      C1158   1.206       .  T
C1159      C1160   1.206       .  T
C1165      C1166   1.402       .  A
C1165      C1170   1.402       .  A
C1165      C1173   1.443       .  S
C1166      C1167   1.401       .  A
C1166      H1175   1.083       .  S
C1167      C1168   1.402       .  A
C1167      H1176   1.083       .  S
C1168      C1169   1.402       .  A
C1168      C1171   1.443       .  S
C1169      C1170   1.400       .  A
C1169      H1177   1.083       .  S
C1170      H1178   1.083       .  S
C1171      C1172   1.208       .  T
C1173      C1174   1.208       .  T
C1179      C1180   1.402       .  A
C1179      C1184   1.402       .  A
C1179      C1187   1.444       .  S
C1180      C1181   1.401       .  A
C1180      H1189   1.083       .  S
C1181      C1182   1.402       .  A
C1181      H1190   1.083       .  S
C1182      C1183   1.402       .  A
C1182      C1185   1.445       .  S
C1183      C1184   1.401       .  A
C1183      H1191   1.083       .  S
C1184      H1192   1.083       .  S
C1185      C1186   1.209       .  T
C1187      C1188   1.208       .  T
C1193      C1194   1.402       .  A
C1193      C1198   1.402       .  A
C1193      C1201   1.445       .  S
C1194      C1195   1.402       .  A
C1194      H1203   1.083       .  S
C1195      C1196   1.403       .  A
C1195      H1204   1.083       .  S
C1196      C1197   1.402       .  A
C1196      C1199   1.446       .  S
C1197      C1198   1.401       .  A
C1197      H1205   1.083       .  S
C1198      H1206   1.083       .  S
C1199      C1200   1.209       .  T
C1201      C1202   1.209       .  T
C1207      C1208   1.402       .  A
C1207      C1212   1.402       .  A
C1207      C1215   1.444       .  S
C1208      C1209   1.400       .  A
C1208      H1217   1.083       .  S
C1209      C1210   1.402       .  A
C1209      H1218   1.083       .  S
C1210      C1211   1.403       .  A
C1210      C1213   1.444       .  S
C1211      C1212   1.401       .  A
C1211      H1219   1.083       .  S
C1212      H1220   1.083       .  S
C1213      C1214   1.209       .  T
C1215      C1216   1.208       .  T
C1221      C1222   1.401       .  A
C1221      C1226   1.402   1_655  A
C1221      C1229   1.441       .  S
C1222      C1223   1.399       .  A
C1222      H1231   1.083       .  S
C1223      C1224   1.402       .  A
C1223      H1232   1.084       .  S
C1224      C1225   1.401   1_655  A
C1224      C1227   1.440   1_655  S
C1225      C1226   1.399       .  A
C1225      H1233   1.083       .  S
C1226      H1234   1.083       .  S
C1227      C1228   1.206       .  T
C1229      C1230   1.206       .  T
C1235      C1236   1.400       .  A
C1235      C1240   1.402   1_455  A
C1235      C1243   1.440       .  S
C1236      C1237   1.398       .  A
C1236      H1245   1.083       .  S
C1237      C1238   1.402       .  A
C1237      H1246   1.084       .  S
C1238      C1239   1.401   1_455  A
C1238      C1241   1.440       .  S
C1239      C1240   1.400       .  A
C1239      H1247   1.083       .  S
C1240      H1248   1.083       .  S
C1241      C1242   1.206       .  T
C1243      C1244   1.206       .  T
C1249      C1250   1.401       .  A
C1249      C1254   1.401   1_455  A
C1249      C1257   1.438       .  S
C1250      C1251   1.398       .  A
C1250      H1259   1.084       .  S
C1251      C1252   1.401       .  A
C1251      H1260   1.083       .  S
C1252      C1253   1.401   1_455  A
C1252      C1255   1.438       .  S
C1253      C1254   1.399       .  A
C1253      H1261   1.083       .  S
C1254      H1262   1.083       .  S
C1255      C1256   1.205       .  T
C1257      C1258   1.205       .  T
C1263      C1264   1.402   1_455  A
C1263      C1268   1.401       .  A
C1263      C1271   1.440       .  S
C1264      C1265   1.399       .  A
C1264      H1273   1.083       .  S
C1265      C1266   1.401   1_655  A
C1265      H1274   1.083       .  S
C1266      C1267   1.402       .  A
C1266      C1269   1.439       .  S
C1267      C1268   1.399       .  A
C1267      H1275   1.084       .  S
C1268      H1276   1.083       .  S
C1269      C1270   1.205       .  T
C1271      C1272   1.206       .  T
C1277      C1278   1.401       .  A
C1277      C1282   1.402   1_455  A
C1277      C1285   1.440       .  S
C1278      C1279   1.399       .  A
C1278      H1287   1.083       .  S
C1279      C1280   1.401       .  A
C1279      H1288   1.083       .  S
C1280      C1281   1.401   1_455  A
C1280      C1283   1.439       .  S
C1281      C1282   1.399       .  A
C1281      H1289   1.083       .  S
C1282      H1290   1.083       .  S
C1283      C1284   1.205       .  T
C1285      C1286   1.206       .  T
C1291      C1292   1.402       .  A
C1291      C1296   1.401   1_655  A
C1291      C1299   1.440       .  S
C1292      C1293   1.399       .  A
C1292      H1301   1.083       .  S
C1293      C1294   1.401       .  A
C1293      H1302   1.083       .  S
C1294      C1295   1.401   1_655  A
C1294      C1297   1.439       .  S
C1295      C1296   1.398       .  A
C1295      H1303   1.084       .  S
C1296      H1304   1.083       .  S
C1297      C1298   1.205       .  T
C1299      C1300   1.206       .  T
C1305      C1306   1.402       .  A
C1305      C1310   1.401       .  A
C1305      C1313   1.441       .  S
C1306      C1307   1.398       .  A
C1306      H1315   1.084       .  S
C1307      C1308   1.400       .  A
C1307      H1316   1.083       .  S
C1308      C1309   1.403       .  A
C1308      C1311   1.441       .  S
C1309      C1310   1.401       .  A
C1309      H1317   1.083       .  S
C1310      H1318   1.083       .  S
C1311      C1312   1.207       .  T
C1313      C1314   1.206       .  T
C1319      C1320   1.401       .  A
C1319      C1324   1.402       .  A
C1319      C1327   1.440       .  S
C1320      C1321   1.400       .  A
C1320      H1329   1.083       .  S
C1321      C1322   1.403       .  A
C1321      H1330   1.083       .  S
C1322      C1323   1.400       .  A
C1322      C1325   1.440       .  S
C1323      C1324   1.398       .  A
C1323      H1331   1.083       .  S
C1324      H1332   1.084       .  S
C1325      C1326   1.206       .  T
C1327      C1328   1.206       .  T
C1333      C1334   1.400       .  A
C1333      C1338   1.402       .  A
C1333      C1341   1.440       .  S
C1334      C1335   1.398       .  A
C1334      H1343   1.084       .  S
C1335      C1336   1.402       .  A
C1335      H1344   1.084       .  S
C1336      C1337   1.401       .  A
C1336      C1339   1.440       .  S
C1337      C1338   1.400       .  A
C1337      H1345   1.083       .  S
C1338      H1346   1.083       .  S
C1339      C1340   1.206       .  T
C1341      C1342   1.206       .  T
C1347      C1348   1.401       .  A
C1347      C1352   1.401       .  A
C1347      C1355   1.439       .  S
C1348      C1349   1.399       .  A
C1348      H1357   1.083       .  S
C1349      C1350   1.401       .  A
C1349      H1358   1.083       .  S
C1350      C1351   1.401       .  A
C1350      C1353   1.439       .  S
C1351      C1352   1.399       .  A
C1351      H1359   1.083       .  S
C1352      H1360   1.083       .  S
C1353      C1354   1.205       .  T
C1355      C1356   1.205       .  T
C1361      C1362   1.401       .  A
C1361      C1366   1.402       .  A
C1361      C1369   1.440       .  S
C1362      C1363   1.401       .  A
C1362      H1371   1.083       .  S
C1363      C1364   1.403       .  A
C1363      H1372   1.083       .  S
C1364      C1365   1.400       .  A
C1364      C1367   1.440       .  S
C1365      C1366   1.397       .  A
C1365      H1373   1.084       .  S
C1366      H1374   1.084       .  S
C1367      C1368   1.206       .  T
C1369      C1370   1.206       .  T
C1375      C1376   1.401       .  A
C1375      C1380   1.402       .  A
C1375      C1383   1.440       .  S
C1376      C1377   1.399       .  A
C1376      H1385   1.083       .  S
C1377      C1378   1.402       .  A
C1377      H1386   1.083       .  S
C1378      C1379   1.401       .  A
C1378      C1381   1.440       .  S
C1379      C1380   1.399       .  A
C1379      H1387   1.083       .  S
C1380      H1388   1.083       .  S
C1381      C1382   1.206       .  T
C1383      C1384   1.206       .  T
C1389      C1390   1.402       .  A
C1389      C1394   1.401       .  A
C1389      C1397   1.441       .  S
C1390      C1391   1.399       .  A
C1390      H1399   1.084       .  S
C1391      C1392   1.401       .  A
C1391      H1400   1.083       .  S
C1392      C1393   1.403       .  A
C1392      C1395   1.441       .  S
C1393      C1394   1.401       .  A
C1393      H1401   1.083       .  S
C1394      H1402   1.083       .  S
C1395      C1396   1.207       .  T
C1397      C1398   1.206       .  T
C1403      C1404   1.401       .  A
C1403      C1408   1.402       .  A
C1403      C1411   1.440       .  S
C1404      C1405   1.401       .  A
C1404      H1413   1.083       .  S
C1405      C1406   1.403       .  A
C1405      H1414   1.083       .  S
C1406      C1407   1.400       .  A
C1406      C1409   1.440       .  S
C1407      C1408   1.397       .  A
C1407      H1415   1.083       .  S
C1408      H1416   1.084       .  S
C1409      C1410   1.206       .  T
C1411      C1412   1.205       .  T
C1417      C1418   1.402   1_455  A
C1417      C1422   1.402       .  A
C1417      C1425   1.443       .  S
C1418      C1419   1.401       .  A
C1418      H1427   1.083       .  S
C1419      C1420   1.402   1_655  A
C1419      H1428   1.083       .  S
C1420      C1421   1.402       .  A
C1420      C1423   1.443       .  S
C1421      C1422   1.400       .  A
C1421      H1429   1.083       .  S
C1422      H1430   1.083       .  S
C1423      C1424   1.208       .  T
C1425      C1426   1.208       .  T
C1431      C1432   1.403   1_455  A
C1431      C1436   1.402       .  A
C1431      C1439   1.444       .  S
C1432      C1433   1.401       .  A
C1432      H1441   1.083       .  S
C1433      C1434   1.402   1_655  A
C1433      H1442   1.083       .  S
C1434      C1435   1.402       .  A
C1434      C1437   1.444   1_455  S
C1435      C1436   1.400       .  A
C1435      H1443   1.083       .  S
C1436      H1444   1.083       .  S
C1437      C1438   1.208       .  T
C1439      C1440   1.208       .  T
C1445      C1446   1.402   1_655  A
C1445      C1450   1.402       .  A
C1445      C1453   1.442       .  S
C1446      C1447   1.400       .  A
C1446      H1455   1.083       .  S
C1447      C1448   1.402   1_455  A
C1447      H1456   1.083       .  S
C1448      C1449   1.401       .  A
C1448      C1451   1.442       .  S
C1449      C1450   1.400       .  A
C1449      H1457   1.083       .  S
C1450      H1458   1.084       .  S
C1451      C1452   1.207       .  T
C1453      C1454   1.207       .  T
C1459      C1460   1.401       .  A
C1459      C1464   1.401   1_455  A
C1459      C1467   1.440       .  S
C1460      C1461   1.400       .  A
C1460      H1469   1.083       .  S
C1461      C1462   1.402       .  A
C1461      H1470   1.083       .  S
C1462      C1463   1.401   1_455  A
C1462      C1465   1.440       .  S
C1463      C1464   1.399       .  A
C1463      H1471   1.083       .  S
C1464      H1472   1.083       .  S
C1465      C1466   1.206       .  T
C1467      C1468   1.205       .  T
C1473      C1474   1.401   1_455  A
C1473      C1478   1.401       .  A
C1473      C1481   1.438       .  S
C1474      C1475   1.398       .  A
C1474      H1483   1.084       .  S
C1475      C1476   1.401       .  A
C1475      H1484   1.084       .  S
C1476      C1477   1.401   1_655  A
C1476      C1479   1.438       .  S
C1477      C1478   1.399       .  A
C1477      H1485   1.083       .  S
C1478      H1486   1.083       .  S
C1479      C1480   1.205       .  T
C1481      C1482   1.205       .  T
C1487      C1488   1.402       .  A
C1487      C1492   1.402   1_455  A
C1487      C1495   1.443       .  S
C1488      C1489   1.400       .  A
C1488      H1497   1.083       .  S
C1489      C1490   1.402       .  A
C1489      H1498   1.083       .  S
C1490      C1491   1.402   1_455  A
C1490      C1493   1.443       .  S
C1491      C1492   1.400       .  A
C1491      H1499   1.083       .  S
C1492      H1500   1.083       .  S
C1493      C1494   1.208       .  T
C1495      C1496   1.208   1_455  T
