geometry optimzed in LAMMPS
_audit_creation_date              2020-11-30 
_audit_creation_method            'lammps2cif' 
_symmetry_space_group_name_H-M    'P1' 
_symmetry_Int_Tables_number       1 
_symmetry_cell_setting            triclinic 
loop_ 
_symmetry_equiv_pos_as_xyz 
  x,y,z 
_cell_length_a                    32.34164719 
_cell_length_b                    32.53624628474565 
_cell_length_c                    32.595944319332204 
_cell_angle_alpha                 89.83474334343403 
_cell_angle_beta                  89.72842374867415 
_cell_angle_gamma                 89.91170360375493 
loop_ 
_atom_site_label 
_atom_site_type_symbol 
_atom_site_fract_x 
_atom_site_fract_y 
_atom_site_fract_z 
_atom_site_charge 
N1          N  0.03764178  0.27109801  0.27032302    -0.03500
C2          C  0.04046517  0.22970767  0.27553169    -0.00900
C3          C  0.05116527  0.21057577  0.23926580    -0.23800
C4          C  0.05428397  0.24068244  0.21025880    -0.24000
C5          C  0.04588016  0.27738755  0.22978566    -0.01000
H6          H  0.05386674  0.17784421  0.23402652     0.12800
H7          H  0.05993060  0.23613920  0.17782952     0.12800
O8          O  0.00670165  0.43019380  0.38378850    -0.86500
O9          O  0.99702265  0.43132339  0.61756713    -0.86700
O10         O  0.06615959  0.38173654  0.49997171    -0.88300
O11         O  0.93573824  0.37802986  0.50165686    -0.87100
O12         O  0.88345870  0.42561795  0.49487367    -0.86700
O13         O  0.11573501  0.43224687  0.50311776    -0.88100
O14         O  0.00358532  0.38136201  0.56845923    -0.86500
O15         O  0.00546700  0.38054231  0.43396447    -0.86100
Zr16       Zr  0.00002616  0.41492893  0.50064434     2.84300
O17         O  0.95510663  0.45499772  0.54001999    -1.08100
O18         O  0.04167684  0.45724953  0.45982101    -1.08800
C19         C  0.00807447  0.39245017  0.39613386     1.06600
C20         C  0.00141475  0.39338686  0.60629112     1.06500
C21         C  0.10370211  0.39424123  0.50182739     1.09500
C22         C  0.89764990  0.38855457  0.49786724     1.07300
H23         H  0.05645105  0.44132566  0.56044308     0.32900
O24         O  0.03924254  0.45773936  0.54265521    -1.29100
H25         H  0.94202681  0.43606012  0.43956761     0.32500
O26         O  0.95766120  0.45401135  0.45720167    -1.30700
O27         O  0.99110355  0.56616208  0.61469797    -0.86500
O28         O  0.99743429  0.56414963  0.38215779    -0.88000
O29         O  0.10987028  0.50196678  0.57196110    -0.86600
O30         O  0.87865546  0.48629266  0.56398703    -0.86600
O31         O  0.88185490  0.49596415  0.42864442    -0.86300
O32         O  0.11625524  0.50138141  0.43456082    -0.86200
O33         O  0.05753243  0.61664203  0.49696631    -0.86500
O34         O  0.92788758  0.61131775  0.49434318    -0.86000
O35         O  0.11041929  0.56942274  0.50068027    -0.87000
O36         O  0.87760437  0.56150788  0.49638124    -0.86200
O37         O  0.05704765  0.50106534  0.61936889    -0.86600
O38         O  0.06659270  0.50022855  0.38424033    -0.86300
O39         O  0.93450685  0.49487376  0.38108469    -0.86000
O40         O  0.92808039  0.49097306  0.61426381    -0.86400
O41         O  0.99114506  0.61550643  0.56427740    -0.86700
O42         O  0.99368106  0.61416743  0.43151834    -0.88000
Zr43       Zr  0.99405557  0.49819390  0.58175766     2.83100
Zr44       Zr  0.99954645  0.49696931  0.41699258     2.83500
Zr45       Zr  0.08124744  0.49992689  0.50188355     2.84100
Zr46       Zr  0.91287650  0.49459268  0.49714201     2.83400
Zr47       Zr  0.99393820  0.57935494  0.49848418     2.84200
O48         O  0.95461536  0.53701273  0.45635320    -1.08600
O49         O  0.03644635  0.54050049  0.54157928    -1.08100
C50         C  0.99052944  0.60401793  0.60228769     1.06600
C51         C  0.99567569  0.60216512  0.39376175     1.09200
C52         C  0.09536869  0.50138117  0.60920837     1.06700
C53         C  0.89094414  0.48572435  0.60173508     1.07100
C54         C  0.89607958  0.49547416  0.39141741     1.06700
C55         C  0.10429901  0.50190855  0.39659979     1.06200
C56         C  0.09582562  0.60644154  0.49815914     1.06700
C57         C  0.89021866  0.59924197  0.49432033     1.06200
H58         H  0.05563653  0.55732604  0.44173233     0.32900
O59         O  0.03889435  0.53955043  0.45885706    -1.29700
H60         H  0.93302367  0.55464605  0.55638698     0.32900
O61         O  0.95130132  0.53806522  0.53974535    -1.31100
N62         N  0.99336168  0.72923875  0.72832944    -0.03500
C63         C  0.99377215  0.72332693  0.76976097    -0.00900
C64         C  0.98994014  0.76008933  0.79045087    -0.23800
C65         C  0.98644713  0.78998657  0.76141594    -0.24000
C66         C  0.98831591  0.77059987  0.72385980    -0.01000
H67         H  0.98969982  0.76453962  0.82335040     0.12800
H68         H  0.98318334  0.82262364  0.76696128     0.12800
N69         N  0.02513638  0.26648163  0.73043143    -0.03500
C70         C  0.03263564  0.22568930  0.72398242    -0.00900
C71         C  0.03850789  0.20506406  0.76059521    -0.23800
C72         C  0.03451676  0.23336821  0.79094221    -0.24000
C73         C  0.02582768  0.27039800  0.77208414    -0.01000
H74         H  0.04333218  0.17239153  0.76480331     0.12800
H75         H  0.03610585  0.22737479  0.82358655     0.12800
N76         N  0.00548195  0.72869182  0.26826802    -0.03500
C77         C  0.01827965  0.72249995  0.22882973    -0.00900
C78         C  0.02310571  0.75934219  0.20835851    -0.23800
C79         C  0.01394543  0.78956753  0.23567174    -0.24000
C80         C  0.00283856  0.77046827  0.27194303    -0.01000
H81         H  0.03128041  0.76368977  0.17640109     0.12800
H82         H  0.01594472  0.82229135  0.22993592     0.12800
O83         O  0.00234524  0.06986975  0.38209551    -0.86500
O84         O  0.00075914  0.06931811  0.61312456    -0.86700
O85         O  0.92792492  0.11679223  0.49771652    -0.88300
O86         O  0.06364784  0.11698889  0.49963835    -0.87100
O87         O  0.11434576  0.06751172  0.49945203    -0.86700
O88         O  0.87794955  0.06701619  0.49989967    -0.88100
O89         O  0.99782592  0.11855765  0.56246483    -0.86500
O90         O  0.00056118  0.11823263  0.43344319    -0.86100
Zr91       Zr  0.99617211  0.08293048  0.49804657     2.84300
O92         O  0.03818544  0.04189751  0.53976305    -1.08100
O93         O  0.95588021  0.04263851  0.45449789    -1.08800
C94         C  0.00301167  0.10735693  0.39565343     1.06600
C95         C  0.00099990  0.10699765  0.60002112     1.06500
C96         C  0.88967370  0.10504866  0.49908167     1.09500
C97         C  0.10189960  0.10533814  0.49989486     1.07300
H98         H  0.93640778  0.05896799  0.55684049     0.32900
O99         O  0.95408546  0.04204177  0.53986390    -1.29100
H100        H  0.05670074  0.05902308  0.44075312     0.32500
O101        O  0.03890558  0.04166716  0.45705578    -1.30700
O102        O  0.99358112  0.93341020  0.61518298    -0.86500
O103        O  0.00060267  0.93212263  0.38201119    -0.88000
O104        O  0.87871363  0.99339347  0.55959784    -0.86600
O105        O  0.11446532  0.99777943  0.56393767    -0.86600
O106        O  0.11659831  0.00182756  0.43428861    -0.86300
O107        O  0.88029220  0.00652995  0.43086729    -0.86200
O108        O  0.93138161  0.88382232  0.49575592    -0.86500
O109        O  0.06572753  0.88310312  0.49907453    -0.86000
O110        O  0.88082793  0.93332643  0.49192307    -0.87000
O111        O  0.11560079  0.93290929  0.49563870    -0.86200
O112        O  0.92632646  0.99626080  0.61162812    -0.86600
O113        O  0.92999686  0.00389115  0.38040658    -0.86300
O114        O  0.06819799  0.00137240  0.38271301    -0.86000
O115        O  0.06491291  0.99885432  0.61473697    -0.86400
O116        O  0.99407718  0.88475518  0.56408655    -0.86700
O117        O  0.00271525  0.88347478  0.43327501    -0.88000
Zr118      Zr  0.99634270  0.00075932  0.58167148     2.83100
Zr119      Zr  0.99864031  0.00093321  0.41357903     2.83500
Zr120      Zr  0.91456844  0.00075436  0.49596918     2.84100
Zr121      Zr  0.08038727  0.00014634  0.49871127     2.83400
Zr122      Zr  0.99836126  0.91829754  0.49802151     2.84200
O123        O  0.03991587  0.95939571  0.45602971    -1.08600
O124        O  0.95599878  0.95997971  0.53837129    -1.08100
C125        C  0.99253185  0.89597591  0.60187965     1.06600
C126        C  0.00257567  0.89453633  0.39542008     1.09200
C127        C  0.88906031  0.99240166  0.59746546     1.06700
C128        C  0.10287148  0.99725731  0.60166172     1.07100
C129        C  0.10574057  0.00223896  0.39645117     1.06700
C130        C  0.89194563  0.00667595  0.39311011     1.06200
C131        C  0.89328871  0.89550350  0.49309311     1.06700
C132        C  0.10389906  0.89484105  0.49683322     1.06200
H133        H  0.93998480  0.94192725  0.43760535     0.32900
O134        O  0.95681807  0.95903899  0.45498869    -1.29700
H135        H  0.05596639  0.94119317  0.55775414     0.32900
O136        O  0.03902773  0.95876628  0.54080799    -1.31100
N137        N  0.23055022  0.22847627  0.50145487    -0.03500
C138        C  0.22721066  0.26970131  0.50724197    -0.00900
C139        C  0.26544585  0.28769995  0.51238955    -0.23800
C140        C  0.29373725  0.25684691  0.51037117    -0.24000
C141        C  0.27179291  0.22108093  0.50397185    -0.01000
H142        H  0.27195037  0.32000599  0.51680354     0.12800
H143        H  0.32696255  0.26005049  0.51271804     0.12800
N144        N  0.76203792  0.23135384  0.50502443    -0.03500
C145        C  0.76748543  0.27252852  0.50018983    -0.00900
C146        C  0.73036232  0.29325141  0.49800181    -0.23800
C147        C  0.70028174  0.26425358  0.50130459    -0.24000
C148        C  0.72016159  0.22685692  0.50512919    -0.01000
H149        H  0.72582780  0.32601764  0.49424474     0.12800
H150        H  0.66726088  0.26961023  0.50016056     0.12800
N151        N  0.77096041  0.76870938  0.47192932    -0.03500
C152        C  0.73033781  0.77663403  0.46587837    -0.00900
C153        C  0.70758548  0.74095789  0.46325223    -0.23800
C154        C  0.73474720  0.70945266  0.46882287    -0.24000
C155        C  0.77306635  0.72712080  0.47456671    -0.01000
H156        H  0.67436728  0.73836717  0.46031072     0.12800
H157        H  0.72725359  0.67705712  0.47003059     0.12800
N158        N  0.22752084  0.76640536  0.47565583    -0.03500
C159        C  0.22055712  0.72525682  0.47688163    -0.00900
C160        C  0.25640615  0.70301850  0.47103916    -0.23800
C161        C  0.28728804  0.73097828  0.46667200    -0.24000
C162        C  0.26914190  0.76925128  0.47024529    -0.01000
H163        H  0.25976786  0.66990942  0.47148333     0.12800
H164        H  0.31993748  0.72422073  0.46352516     0.12800
N165        N  0.72670898  0.03296211  0.26552049    -0.03500
C166        C  0.76820642  0.03783068  0.27079376    -0.00900
C167        C  0.78668805  0.05087425  0.23476125    -0.23800
C168        C  0.75597959  0.05450553  0.20630349    -0.24000
C169        C  0.71971187  0.04351203  0.22578815    -0.01000
H170        H  0.81940581  0.05541701  0.22933347     0.12800
H171        H  0.75996910  0.06169236  0.17408553     0.12800
O172        O  0.42624083  0.10613462  0.49831136    -0.86500
O173        O  0.43368157  0.87526398  0.48866337    -0.86700
O174        O  0.37911908  0.99432327  0.42951507    -0.88300
O175        O  0.38068434  0.98573851  0.56512824    -0.87100
O176        O  0.43137207  0.98412097  0.61419076    -0.86700
O177        O  0.42907027  0.99732105  0.37921502    -0.88100
O178        O  0.38251545  0.92429608  0.49374056    -0.86500
O179        O  0.37764061  0.05470091  0.49876983    -0.86100
Zr180      Zr  0.41419647  0.99053523  0.49676268     2.84300
O181        O  0.45735155  0.94769473  0.53530125    -1.08100
O182        O  0.45400842  0.03494961  0.45620960    -1.08800
C183        C  0.38876585  0.09257742  0.49791495     1.06600
C184        C  0.39557262  0.88724664  0.48986428     1.06500
C185        C  0.39092420  0.99667433  0.39147007     1.09500
C186        C  0.39306305  0.98372597  0.60292101     1.07300
H187        H  0.43983116  0.93566040  0.43490759     0.32900
O188        O  0.45665657  0.95205134  0.45282641    -1.29100
H189        H  0.43695720  0.04760639  0.55721138     0.32500
O190        O  0.45457346  0.03190197  0.53911984    -1.30700
O191        O  0.57006780  0.88041273  0.48768596    -0.86500
O192        O  0.56132036  0.11164110  0.50148368    -0.88000
O193        O  0.49913805  0.93294272  0.37548746    -0.86600
O194        O  0.50064050  0.92208415  0.60875773    -0.86600
O195        O  0.49858106  0.05313315  0.61391519    -0.86300
O196        O  0.49358770  0.06258989  0.38121388    -0.86200
O197        O  0.61478490  0.00281390  0.42787850    -0.86500
O198        O  0.61583099  0.99328551  0.56165878    -0.86000
O199        O  0.56404237  0.00430190  0.37883958    -0.87000
O200        O  0.56552309  0.98754546  0.61120701    -0.86200
O201        O  0.50086545  0.87988557  0.42194637    -0.86600
O202        O  0.49384203  0.11182556  0.43144104    -0.86300
O203        O  0.49501546  0.10560605  0.56678719    -0.86000
O204        O  0.50298839  0.87362189  0.55751547    -0.86400
O205        O  0.61738534  0.93309936  0.49082936    -0.86700
O206        O  0.61263181  0.06279552  0.49889607    -0.88000
Zr207      Zr  0.50052591  0.90974719  0.49132325     2.83100
Zr208      Zr  0.49495352  0.07611062  0.49826346     2.83500
Zr209      Zr  0.49691303  0.99645561  0.41312072     2.84100
Zr210      Zr  0.49782284  0.98903324  0.57762270     2.83400
Zr211      Zr  0.58048614  0.99640285  0.49493016     2.84200
O212        O  0.53787162  0.03443181  0.53838572    -1.08600
O213        O  0.54095070  0.95459827  0.45163182    -1.08100
C214        C  0.60716705  0.89522099  0.48788344     1.06600
C215        C  0.59956592  0.10001796  0.50131895     1.09200
C216        C  0.49950827  0.89457423  0.38492406     1.06700
C217        C  0.50309668  0.88499027  0.59557051     1.07100
C218        C  0.49711213  0.09125958  0.60376520     1.06700
C219        C  0.49304048  0.10003476  0.39346439     1.06200
C220        C  0.60221286  0.00612889  0.39037434     1.06700
C221        C  0.60374825  0.98947103  0.59943234     1.06200
H222        H  0.55419652  0.05670189  0.43865243     0.32900
O223        O  0.53770816  0.03807124  0.45502598    -1.29700
H224        H  0.55887247  0.93371340  0.55034186     0.32900
O225        O  0.54080616  0.95092438  0.53425993    -1.31100
N226        N  0.26622849  0.97353879  0.72925480    -0.03500
C227        C  0.27156700  0.96364688  0.76953694    -0.00900
C228        C  0.23415981  0.96407440  0.79026257    -0.23800
C229        C  0.20474371  0.97498040  0.76240666    -0.24000
C230        C  0.22506193  0.98123963  0.72560277    -0.01000
H231        H  0.22913158  0.95919288  0.82276727     0.12800
H232        H  0.17196152  0.97841990  0.76834421     0.12800
N233        N  0.72647462  0.96379213  0.72665120    -0.03500
C234        C  0.76813261  0.96445342  0.72067718    -0.00900
C235        C  0.78905469  0.95085538  0.75484006    -0.23800
C236        C  0.75985614  0.94261854  0.78383897    -0.24000
C237        C  0.72189994  0.95116922  0.76637796    -0.01000
H238        H  0.82222757  0.94891016  0.75870242     0.12800
H239        H  0.76590225  0.93450777  0.81547374     0.12800
N240        N  0.26692703  0.01279908  0.26486612    -0.03500
C241        C  0.27220763  0.01621142  0.22365359    -0.00900
C242        C  0.23590853  0.02807075  0.20483907    -0.23800
C243        C  0.20707513  0.03250917  0.23534656    -0.24000
C244        C  0.22687464  0.02317310  0.27159560    -0.01000
H245        H  0.23085630  0.03220258  0.17228212     0.12800
H246        H  0.17470646  0.03999432  0.23145988     0.12800
O247        O  0.61533132  0.00393719  0.06497614    -0.86500
O248        O  0.38099087  0.99405162  0.06180461    -0.86700
O249        O  0.49708940  0.06463771  0.11161664    -0.88300
O250        O  0.49923118  0.93119581  0.11308581    -0.87100
O251        O  0.49564152  0.88132383  0.06355802    -0.86700
O252        O  0.49605838  0.11356358  0.06083570    -0.88100
O253        O  0.43215166  0.99629910  0.11055187    -0.86500
O254        O  0.56299048  0.00473196  0.11298298    -0.86100
Zr255      Zr  0.49849849  0.99746398  0.07733108     2.84300
O256        O  0.45703436  0.95527476  0.03661178    -1.08100
O257        O  0.54071404  0.03817256  0.03589477    -1.08800
C258        C  0.60114307  0.00713652  0.10215585     1.06600
C259        C  0.39416879  0.99505635  0.09929098     1.06500
C260        C  0.49566455  0.10238783  0.09909633     1.09500
C261        C  0.49663635  0.89336911  0.10131577     1.07300
H262        H  0.43857228  0.05512688  0.05176164     0.32900
O263        O  0.45609649  0.03772375  0.03514765    -1.29100
H264        H  0.55841112  0.93797275  0.05588684     0.32500
O265        O  0.54162669  0.95486457  0.03807705    -1.30700
O266        O  0.38337013  0.98879331  0.92559376    -0.86500
O267        O  0.61673272  0.98994490  0.92857501    -0.88000
O268        O  0.43340581  0.11274586  0.98928605    -0.86600
O269        O  0.43532991  0.87819357  0.99517312    -0.86600
O270        O  0.56422071  0.87899125  0.99451051    -0.86300
O271        O  0.56426061  0.11341855  0.99593131    -0.86200
O272        O  0.50013928  0.06079887  0.87615665    -0.86500
O273        O  0.50347190  0.92825933  0.87846225    -0.86000
O274        O  0.50215793  0.11104828  0.92534579    -0.87000
O275        O  0.50028448  0.87883975  0.92868053    -0.86200
O276        O  0.38240215  0.06337685  0.98976111    -0.86600
O277        O  0.61588145  0.06469976  0.99367852    -0.86300
O278        O  0.61603221  0.92712562  0.99862899    -0.86000
O279        O  0.38362115  0.92599796  0.99602058    -0.86400
O280        O  0.43542224  0.99058718  0.87734842    -0.86700
O281        O  0.56635611  0.99275448  0.87898073    -0.88000
Zr282      Zr  0.41476809  0.99508990  0.99405274     2.83100
Zr283      Zr  0.58403776  0.99613895  0.99645956     2.83500
Zr284      Zr  0.49894307  0.07846247  0.99368558     2.84100
Zr285      Zr  0.49963338  0.91409055  0.99591617     2.83400
Zr286      Zr  0.50038025  0.99519580  0.91270576     2.84200
O287        O  0.54223170  0.95486727  0.95495712    -1.08600
O288        O  0.45709825  0.03686645  0.95251098    -1.08100
C289        C  0.39729816  0.98763055  0.88820299     1.06600
C290        C  0.60396528  0.98938630  0.89095203     1.09200
C291        C  0.39556891  0.10094958  0.98797703     1.06700
C292        C  0.39709706  0.88836623  0.99551410     1.07100
C293        C  0.60226818  0.88974027  0.99605900     1.06700
C294        C  0.60235916  0.10223978  0.99481105     1.06200
C295        C  0.50183704  0.09872965  0.88757217     1.06700
C296        C  0.50239363  0.89039509  0.89059707     1.06200
H297        H  0.55960399  0.05376506  0.93614751     0.32900
O298        O  0.54228902  0.03693231  0.95355852    -1.29700
H299        H  0.44163136  0.93572569  0.93654604     0.32900
O300        O  0.45785956  0.95381488  0.95352349    -1.31100
N301        N  0.47655707  0.22616360  0.22646154    -0.03500
C302        C  0.47062350  0.22097416  0.26769050    -0.00900
C303        C  0.45633348  0.25678031  0.28563691    -0.23800
C304        C  0.45318419  0.28527636  0.25518862    -0.24000
C305        C  0.46552786  0.26595180  0.21963759    -0.01000
H306        H  0.45023046  0.26190870  0.31790876     0.12800
H307        H  0.44451466  0.31722752  0.25872260     0.12800
N308        N  0.47929232  0.76491795  0.22283523    -0.03500
C309        C  0.47257902  0.72403972  0.21664848    -0.00900
C310        C  0.46844999  0.70353294  0.25355972    -0.23800
C311        C  0.47384208  0.73198984  0.28369723    -0.24000
C312        C  0.48145457  0.76901729  0.26429638    -0.01000
H313        H  0.46425942  0.67081903  0.25799498     0.12800
H314        H  0.47406726  0.72604870  0.31638531     0.12800
N315        N  0.52001949  0.76499788  0.76489945    -0.03500
C316        C  0.52295485  0.72384424  0.77235977    -0.00900
C317        C  0.53697136  0.70290923  0.73830669    -0.23800
C318        C  0.54173938  0.73128056  0.70800052    -0.24000
C319        C  0.53029442  0.76874973  0.72437366    -0.01000
H320        H  0.54149439  0.67006315  0.73545412     0.12800
H321        H  0.55008913  0.72489407  0.67645128     0.12800
N322        N  0.50220304  0.22441648  0.76173235    -0.03500
C323        C  0.50229978  0.21993156  0.72031587    -0.00900
C324        C  0.51099518  0.25664906  0.70072406    -0.23800
C325        C  0.51563956  0.28528974  0.73070692    -0.24000
C326        C  0.51019908  0.26491652  0.76749881    -0.01000
H327        H  0.51307645  0.26201537  0.66798772     0.12800
H328        H  0.52150511  0.31774606  0.72626993     0.12800
O329        O  0.00948153  0.38428010  0.07182737    -0.86500
O330        O  0.00332754  0.61530110  0.06544578    -0.86700
O331        O  0.06773288  0.50232062  0.11572932    -0.88300
O332        O  0.93200956  0.49903870  0.11635582    -0.87100
O333        O  0.88239554  0.49588692  0.06633767    -0.86700
O334        O  0.11801785  0.50036305  0.06583151    -0.88100
O335        O  0.99969280  0.56521357  0.11527255    -0.86500
O336        O  0.00522279  0.43636786  0.11927048    -0.86100
Zr337      Zr  0.00005688  0.49983284  0.08181096     2.84300
O338        O  0.95838799  0.54056678  0.03957126    -1.08100
O339        O  0.04243427  0.45745183  0.04185338    -1.08800
C340        C  0.00978329  0.39856960  0.10892411     1.06600
C341        C  0.00213620  0.60274180  0.10338303     1.06500
C342        C  0.10594256  0.50170145  0.10372125     1.09500
C343        C  0.89393691  0.49695970  0.10430220     1.07300
H344        H  0.06000479  0.55821253  0.05605532     0.32900
O345        O  0.04248298  0.54073941  0.03972409    -1.29100
H346        H  0.94243248  0.43902853  0.06023158     0.32500
O347        O  0.95940571  0.45578412  0.04230011    -1.30700
O348        O  0.00134982  0.61065524  0.92782524    -0.86500
O349        O  0.00194786  0.37831120  0.93508756    -0.88000
O350        O  0.11839426  0.56232148  0.99291304    -0.86600
O351        O  0.88329792  0.56217728  0.99643639    -0.86600
O352        O  0.88442339  0.43053542  0.99944977    -0.86300
O353        O  0.12039890  0.43487945  0.00474192    -0.86200
O354        O  0.06778086  0.49263417  0.88128157    -0.86500
O355        O  0.93470227  0.48956549  0.88298086    -0.86000
O356        O  0.11780903  0.49243333  0.93095251    -0.87000
O357        O  0.88363413  0.49304964  0.93191227    -0.86200
O358        O  0.06982050  0.61353776  0.98970838    -0.86600
O359        O  0.07250547  0.38310354  0.00321706    -0.86300
O360        O  0.93403529  0.38006454  0.00510033    -0.86000
O361        O  0.93243599  0.61331918  0.99340008    -0.86400
O362        O  0.99899370  0.55877265  0.88009601    -0.86700
O363        O  0.00193218  0.42837584  0.88517769    -0.88000
Zr364      Zr  0.00099719  0.58134170  0.99726600     2.83100
Zr365      Zr  0.00228566  0.41311956  0.00232677     2.83500
Zr366      Zr  0.08364208  0.49792534  0.99891756     2.84100
Zr367      Zr  0.91792325  0.49654319  0.99943743     2.83400
Zr368      Zr  0.00125507  0.49467627  0.91731126     2.84200
O369        O  0.96014595  0.45362577  0.95985343    -1.08600
O370        O  0.04251362  0.53845133  0.95643791    -1.08100
C371        C  0.00020318  0.59682444  0.89061817     1.06600
C372        C  0.00237952  0.39074411  0.89719807     1.09200
C373        C  0.10757181  0.59990135  0.98809306     1.06700
C374        C  0.89473573  0.59993016  0.99349464     1.07100
C375        C  0.89614825  0.39288386  0.00245010     1.06700
C376        C  0.11017477  0.39694287  0.00433219     1.06200
C377        C  0.10584610  0.49125828  0.89302960     1.06700
C378        C  0.89639664  0.48978895  0.89427782     1.06200
H379        H  0.06089200  0.43661755  0.94258848     0.32900
O380        O  0.04335091  0.45400103  0.95916863    -1.29700
H381        H  0.94212736  0.55364264  0.93928059     0.32900
O382        O  0.95954271  0.53762735  0.95725308    -1.31100
N383        N  0.76567385  0.49204847  0.22907467    -0.03500
C384        C  0.76932945  0.49421715  0.27062172    -0.00900
C385        C  0.73242856  0.48416757  0.28969863    -0.23800
C386        C  0.70460178  0.47665631  0.25935554    -0.24000
C387        C  0.72563065  0.48156673  0.22278211    -0.01000
H388        H  0.72656556  0.48201834  0.32235751     0.12800
H389        H  0.67224146  0.46913558  0.26338327     0.12800
N390        N  0.23181499  0.50988512  0.22904939    -0.03500
C391        C  0.27306832  0.51005034  0.22113950    -0.00900
C392        C  0.29565993  0.51216485  0.25684618    -0.23800
C393        C  0.26779381  0.51285566  0.28827433    -0.24000
C394        C  0.22895604  0.51122603  0.27084277    -0.01000
H395        H  0.32899674  0.51144498  0.25965402     0.12800
H396        H  0.27502727  0.51348479  0.32065615     0.12800
N397        N  0.23068601  0.47940959  0.76554513    -0.03500
C398        C  0.26914861  0.46302972  0.77000998    -0.00900
C399        C  0.28662438  0.45435532  0.73223858    -0.23800
C400        C  0.25822498  0.46523050  0.70340106    -0.24000
C401        C  0.22467276  0.48112673  0.72432808    -0.01000
H402        H  0.31757567  0.44314210  0.72620367     0.12800
H403        H  0.26165051  0.46194562  0.67052555     0.12800
N404        N  0.77535711  0.45341351  0.76899468    -0.03500
C405        C  0.77954621  0.43970570  0.72969049    -0.00900
C406        C  0.74234439  0.42526683  0.71485620    -0.23800
C407        C  0.71392524  0.43049884  0.74528649    -0.24000
C408        C  0.73452228  0.44816150  0.77762240    -0.01000
H409        H  0.73583100  0.41515753  0.68395037     0.12800
H410        H  0.68109720  0.42442733  0.74330594     0.12800
N411        N  0.26643240  0.26253909  0.97598195    -0.03500
C412        C  0.22475458  0.26761635  0.97804111    -0.00900
C413        C  0.20453678  0.23232748  0.96565196    -0.23800
C414        C  0.23433275  0.20344837  0.95869137    -0.24000
C415        C  0.27161334  0.22243109  0.96605999    -0.01000
H416        H  0.17147809  0.22738210  0.96437456     0.12800
H417        H  0.22928226  0.17126484  0.95208766     0.12800
O418        O  0.49382794  0.42529912  0.11073320    -0.86500
O419        O  0.50309205  0.42231272  0.87959585    -0.86700
O420        O  0.43266623  0.37464009  0.99199317    -0.88300
O421        O  0.56875098  0.37602243  0.99447250    -0.87100
O422        O  0.61829860  0.42642625  0.99660194    -0.86700
O423        O  0.38219517  0.42435452  0.99162324    -0.88100
O424        O  0.50085894  0.37342043  0.93074857    -0.86500
O425        O  0.49639393  0.37597597  0.06031049    -0.86100
Zr426      Zr  0.50019292  0.40959392  0.99464763     2.84300
O427        O  0.54211453  0.45103637  0.95313368    -1.08100
O428        O  0.45751628  0.45111023  0.03522910    -1.08800
C429        C  0.49355161  0.38770461  0.09779687     1.06600
C430        C  0.50251049  0.38476861  0.89304636     1.06500
C431        C  0.39438253  0.38640162  0.99118757     1.09500
C432        C  0.60682452  0.38838772  0.99576628     1.07300
H433        H  0.44244045  0.43266036  0.93469105     0.32900
O434        O  0.45926845  0.45026286  0.95156264    -1.29100
H435        H  0.55790135  0.43392628  0.05396752     0.32500
O436        O  0.54091647  0.45115015  0.03671604    -1.30700
O437        O  0.50023616  0.56074217  0.87770556    -0.86500
O438        O  0.49319084  0.56141667  0.10960796    -0.88000
O439        O  0.38349394  0.49046971  0.92612546    -0.86600
O440        O  0.61788013  0.48738382  0.93009814    -0.86600
O441        O  0.61689540  0.49359595  0.06030521    -0.86300
O442        O  0.38081169  0.49282417  0.05676407    -0.86200
O443        O  0.43254393  0.60866622  0.98926649    -0.86500
O444        O  0.56650292  0.60998483  0.99532409    -0.86000
O445        O  0.38199983  0.55924147  0.98844263    -0.87000
O446        O  0.61688350  0.56027642  0.99292124    -0.86200
O447        O  0.43351502  0.48753305  0.87581387    -0.86600
O448        O  0.42912638  0.49238761  0.10839942    -0.86300
O449        O  0.56669490  0.49137186  0.11056075    -0.86000
O450        O  0.57030296  0.48758024  0.87789591    -0.86400
O451        O  0.49942315  0.60904280  0.92906770    -0.86700
O452        O  0.49483420  0.60997387  0.05822340    -0.88000
Zr453      Zr  0.50126943  0.49166807  0.90967083     2.83100
Zr454      Zr  0.49825104  0.49291678  0.07756606     2.83500
Zr455      Zr  0.41667238  0.49185752  0.99206196     2.84100
Zr456      Zr  0.58265251  0.49287881  0.99499651     2.83400
Zr457      Zr  0.49966790  0.57436230  0.99370036     2.84200
O458        O  0.54115584  0.53452385  0.03677069    -1.08600
O459        O  0.45899972  0.53322990  0.95096607    -1.08100
C460        C  0.49958200  0.59828366  0.89123628     1.06600
C461        C  0.49209799  0.59893935  0.09602296     1.09200
C462        C  0.39547614  0.48781699  0.88858129     1.06700
C463        C  0.60764009  0.48556256  0.89209744     1.07100
C464        C  0.60476916  0.49204873  0.09787884     1.06700
C465        C  0.39163387  0.49273536  0.09464425     1.06200
C466        C  0.39441804  0.59706761  0.98724768     1.06700
C467        C  0.60467978  0.59818248  0.99367686     1.06200
H468        H  0.43880059  0.55076920  0.05056992     0.32900
O469        O  0.45689215  0.53345394  0.03450181    -1.29700
H470        H  0.55968320  0.55078356  0.93485844     0.32900
O471        O  0.54213177  0.53368459  0.95178253    -1.31100
N472        N  0.72938392  0.72424169  0.97752691    -0.03500
C473        C  0.72147651  0.76500144  0.97354764    -0.00900
C474        C  0.75612654  0.78623510  0.96092129    -0.23800
C475        C  0.78684292  0.75782582  0.95664800    -0.24000
C476        C  0.76967505  0.72015269  0.96634859    -0.01000
H477        H  0.75890313  0.81911335  0.95655077     0.12800
H478        H  0.81881197  0.76416799  0.94903072     0.12800
N479        N  0.27153136  0.72468995  0.96425910    -0.03500
C480        C  0.28047129  0.76347242  0.95092493    -0.00900
C481        C  0.25259713  0.77602046  0.92127609    -0.23800
C482        C  0.22313870  0.74623318  0.91903831    -0.24000
C483        C  0.23494848  0.71584974  0.94604658    -0.01000
H484        H  0.25138573  0.80561923  0.90609142     0.12800
H485        H  0.19437353  0.74807606  0.90228786     0.12800
N486        N  0.73441797  0.26293129  0.99597145    -0.03500
C487        C  0.77489547  0.26657189  0.00652330    -0.00900
C488        C  0.79453757  0.22886684  0.00626366    -0.23800
C489        C  0.76542944  0.20055230  0.99602033    -0.24000
C490        C  0.72907117  0.22191868  0.98986735    -0.01000
H491        H  0.82688124  0.22279628  0.01219213     0.12800
H492        H  0.76992698  0.16762932  0.99419446     0.12800
C493        C  0.64537343  0.33093822  0.96208803    -0.20300
C494        C  0.64010346  0.35654708  0.99624800    -0.06900
C495        C  0.66762577  0.35224532  0.02959557     0.14000
C496        C  0.69827002  0.32129416  0.02880010    -0.20400
C497        C  0.70334178  0.29532407  0.99472632    -0.06900
C498        C  0.67749985  0.30167700  0.96022615     0.14000
C499        C  0.68453028  0.28021180  0.92002328    -0.23700
H500        H  0.62533553  0.33491179  0.93587728     0.15200
H501        H  0.71833811  0.31713216  0.05501027     0.15300
C502        C  0.66408513  0.37971146  0.06645338    -0.23700
H503        H  0.68821808  0.30347844  0.89526928     0.05500
H504        H  0.65760560  0.26039731  0.91287633     0.08700
H505        H  0.71301559  0.26145942  0.91997735     0.08700
H506        H  0.63265021  0.37698708  0.07987282     0.08700
H507        H  0.66974768  0.41213391  0.05739633     0.08700
H508        H  0.68692560  0.37134387  0.09035255     0.05500
C509        C  0.33240360  0.63674850  0.01179115    -0.20300
C510        C  0.36283049  0.62995121  0.98159727    -0.06900
C511        C  0.36303351  0.65505574  0.94612945     0.14000
C512        C  0.33223882  0.68519449  0.94107178    -0.20400
C513        C  0.30245117  0.69306154  0.97170608    -0.06900
C514        C  0.30268590  0.66839232  0.00756800     0.14000
C515        C  0.27246007  0.67506389  0.04204236    -0.23700
H516        H  0.33238815  0.61789204  0.03927832     0.15200
H517        H  0.33184472  0.70362519  0.91333739     0.15300
C518        C  0.39566385  0.64998406  0.91337942    -0.23700
H519        H  0.28958212  0.68139524  0.07078298     0.05500
H520        H  0.25341449  0.64700713  0.04640325     0.08700
H521        H  0.25157180  0.70140654  0.03622499     0.08700
H522        H  0.39594232  0.61781964  0.90235598     0.08700
H523        H  0.42650103  0.65751568  0.92604784     0.08700
H524        H  0.39016889  0.67058798  0.88672987     0.05500
C525        C  0.64972414  0.65266847  0.02444062    -0.20300
C526        C  0.63696448  0.63051362  0.98972399    -0.06900
C527        C  0.65578897  0.63921699  0.95138704     0.14000
C528        C  0.68714114  0.66899507  0.94880219    -0.20400
C529        C  0.69944865  0.69163494  0.98314048    -0.06900
C530        C  0.68081258  0.68305904  0.02158103     0.14000
C531        C  0.69381477  0.70479546  0.06006736    -0.23700
H532        H  0.63564596  0.64602217  0.05397704     0.15200
H533        H  0.70122469  0.67576839  0.91931286     0.15300
C534        C  0.64280225  0.61850282  0.91224938    -0.23700
H535        H  0.70487542  0.68186577  0.08282831     0.05500
H536        H  0.66703449  0.72167893  0.07322936     0.08700
H537        H  0.71919784  0.72701465  0.05451516     0.08700
H538        H  0.61674472  0.59688050  0.91658393     0.08700
H539        H  0.66938084  0.60117078  0.89927341     0.08700
H540        H  0.63283781  0.64211748  0.88968021     0.05500
C541        C  0.30366846  0.31473955  0.01693179    -0.20300
C542        C  0.29883500  0.29322662  0.97994238    -0.06900
C543        C  0.32589901  0.30262214  0.94674372     0.14000
C544        C  0.35752146  0.33192698  0.95182708    -0.20400
C545        C  0.36190115  0.35386141  0.98853802    -0.06900
C546        C  0.33454270  0.34512030  0.02142547     0.14000
C547        C  0.33851952  0.36739488  0.06154485    -0.23700
H548        H  0.28306678  0.30779282  0.04230365     0.15200
H549        H  0.37797854  0.33886006  0.92627196     0.15300
C550        C  0.32118384  0.28391781  0.90479329    -0.23700
H551        H  0.31582000  0.35617541  0.08464517     0.05500
H552        H  0.33334200  0.40081296  0.05688696     0.08700
H553        H  0.36999060  0.36248911  0.07386289     0.08700
H554        H  0.29295286  0.26502742  0.90180006     0.08700
H555        H  0.34864499  0.26465130  0.89766471     0.08700
H556        H  0.31895899  0.30874912  0.88146559     0.05500
C557        C  0.68600010  0.49811286  0.80621076    -0.20300
C558        C  0.71119265  0.46356581  0.81301517    -0.06900
C559        C  0.70319422  0.43753036  0.84660078     0.14000
C560        C  0.66910993  0.44577227  0.87191716    -0.20400
C561        C  0.64235037  0.47885589  0.86363863    -0.06900
C562        C  0.65124377  0.50584070  0.83089364     0.14000
C563        C  0.62407534  0.54232733  0.82168182    -0.23700
H564        H  0.69184851  0.51733609  0.77957802     0.15200
H565        H  0.66242017  0.42544825  0.89753170     0.15300
C566        C  0.72947309  0.40006527  0.85442315    -0.23700
H567        H  0.63620791  0.56068780  0.79549798     0.05500
H568        H  0.62229684  0.56261833  0.84885112     0.08700
H569        H  0.59249293  0.53183408  0.81373173     0.08700
H570        H  0.76204635  0.40956281  0.85918780     0.08700
H571        H  0.72800218  0.37896618  0.82775894     0.08700
H572        H  0.71895809  0.38291385  0.88207696     0.05500
C573        C  0.35806747  0.44316217  0.84092019    -0.20300
C574        C  0.36217891  0.48199580  0.85877677    -0.06900
C575        C  0.33093375  0.51183690  0.85301588     0.14000
C576        C  0.29780170  0.50312966  0.82691493    -0.20400
C577        C  0.29489284  0.46507877  0.80713893    -0.06900
C578        C  0.32427864  0.43399396  0.81591091     0.14000
C579        C  0.32067294  0.39085820  0.79956822    -0.23700
H580        H  0.38079655  0.41947813  0.84740794     0.15200
H581        H  0.27569953  0.52713215  0.81978969     0.15300
C582        C  0.33350230  0.55356866  0.87266927    -0.23700
H583        H  0.32071760  0.36873424  0.82558067     0.05500
H584        H  0.34740067  0.38400294  0.77919119     0.08700
H585        H  0.29165102  0.38596220  0.78228114     0.08700
H586        H  0.36193478  0.56920419  0.86183992     0.08700
H587        H  0.33418372  0.55058221  0.90657160     0.08700
H588        H  0.30660555  0.57322153  0.86459119     0.05500
C589        C  0.31777817  0.46609747  0.18038209    -0.20300
C590        C  0.29365525  0.50185377  0.18180138    -0.06900
C591        C  0.29905197  0.53268475  0.15178840     0.14000
C592        C  0.33095235  0.52822195  0.12289707    -0.20400
C593        C  0.35771300  0.49424140  0.12429247    -0.06900
C594        C  0.35038440  0.46222470  0.15259916     0.14000
C595        C  0.37649560  0.42402231  0.15502855    -0.23700
H596        H  0.31326662  0.44242080  0.20348778     0.15200
H597        H  0.33614137  0.55209499  0.10015422     0.15300
C598        C  0.27253353  0.57074017  0.15105967    -0.23700
H599        H  0.38976345  0.42102270  0.18626448     0.05500
H600        H  0.40231752  0.42423630  0.13272869     0.08700
H601        H  0.35697099  0.39672913  0.14881415     0.08700
H602        H  0.27438124  0.58693329  0.18090926     0.08700
H603        H  0.23999296  0.56213686  0.14495150     0.08700
H604        H  0.28247345  0.59244149  0.12654673     0.05500
C605        C  0.64814235  0.45107404  0.14441674    -0.20300
C606        C  0.63790890  0.48965067  0.12826928    -0.06900
C607        C  0.66201754  0.52430498  0.13815888     0.14000
C608        C  0.69491083  0.51982793  0.16573132    -0.20400
C609        C  0.70367648  0.48155939  0.18355960    -0.06900
C610        C  0.68115728  0.44650373  0.17160827     0.14000
C611        C  0.69074741  0.40419162  0.18804246    -0.23700
H612        H  0.63009486  0.42443890  0.13600749     0.15200
H613        H  0.71170374  0.54675558  0.17584751     0.15300
C614        C  0.65148510  0.56625359  0.12146772    -0.23700
H615        H  0.66387039  0.39245153  0.20581054     0.05500
H616        H  0.71832357  0.40380242  0.20815033     0.08700
H617        H  0.69713169  0.38301396  0.16217149     0.08700
H618        H  0.61954682  0.57472932  0.13089000     0.08700
H619        H  0.65351724  0.56612347  0.08746671     0.08700
H620        H  0.67287747  0.59018604  0.13307437     0.05500
C621        C  0.85453241  0.64386452  0.94745753    -0.20300
C622        C  0.86140578  0.62963453  0.98737795    -0.06900
C623        C  0.83372799  0.64016005  0.01923025     0.14000
C624        C  0.80144192  0.66777002  0.01100228    -0.20400
C625        C  0.79562238  0.68344264  0.97132509    -0.06900
C626        C  0.82138532  0.67010791  0.93887059     0.14000
C627        C  0.81337540  0.68282021  0.89508326    -0.23700
H628        H  0.87484038  0.63386450  0.92284599     0.15200
H629        H  0.78187451  0.67847907  0.03585458     0.15300
C630        C  0.83885324  0.62292741  0.06185368    -0.23700
H631        H  0.83508313  0.66755349  0.87342916     0.05500
H632        H  0.81709745  0.71645442  0.89122159     0.08700
H633        H  0.78142168  0.67399188  0.88648255     0.08700
H634        H  0.86951938  0.63179956  0.07405515     0.08700
H635        H  0.83661450  0.58888630  0.06108857     0.08700
H636        H  0.81463229  0.63452941  0.08315696     0.05500
C637        C  0.85869464  0.33846062  0.03952663    -0.20300
C638        C  0.86277370  0.36249999  0.00411821    -0.06900
C639        C  0.83328591  0.35923374  0.97236600     0.14000
C640        C  0.80154901  0.33016586  0.97595616    -0.20400
C641        C  0.79868156  0.30471826  0.01052371    -0.06900
C642        C  0.82669542  0.30985369  0.04334484     0.14000
C643        C  0.82398185  0.28518709  0.08249875    -0.23700
H644        H  0.88048784  0.34218191  0.06444265     0.15200
H645        H  0.78054802  0.32544031  0.95056708     0.15300
C646        C  0.83630396  0.38486930  0.93386075    -0.23700
H647        H  0.82132659  0.30640119  0.10901277     0.05500
H648        H  0.85237590  0.26629729  0.08606002     0.08700
H649        H  0.79671570  0.26458055  0.08340650     0.08700
H650        H  0.86700921  0.38057464  0.91933914     0.08700
H651        H  0.83198566  0.41783937  0.94128307     0.08700
H652        H  0.81238298  0.37623274  0.91113439     0.05500
C653        C  0.14017793  0.66853835  0.99520533    -0.20300
C654        C  0.14178843  0.62873490  0.97909969    -0.06900
C655        C  0.17606954  0.61707403  0.95400955     0.14000
C656        C  0.20751890  0.64549763  0.94594353    -0.20400
C657        C  0.20515811  0.68532099  0.96119915    -0.06900
C658        C  0.17124603  0.69719378  0.98614075     0.14000
C659        C  0.16719606  0.74038386  0.00239166    -0.23700
H660        H  0.11418735  0.67744574  0.01434859     0.15200
H661        H  0.23324108  0.63722286  0.92613830     0.15300
C662        C  0.17873848  0.57579904  0.93318383    -0.23700
H663        H  0.14007236  0.74363463  0.02316756     0.05500
H664        H  0.16308662  0.76231797  0.97661188     0.08700
H665        H  0.19528208  0.74883845  0.01984108     0.08700
H666        H  0.14996019  0.57035594  0.91570479     0.08700
H667        H  0.18333604  0.55102085  0.95615965     0.08700
H668        H  0.20506354  0.57411126  0.91121904     0.05500
C669        C  0.21025035  0.34214723  0.97736561    -0.20300
C670        C  0.20214371  0.30343420  0.99407536    -0.06900
C671        C  0.16772667  0.29812330  0.02068650     0.14000
C672        C  0.13860256  0.32956109  0.02410354    -0.20400
C673        C  0.14462017  0.36720833  0.00428989    -0.06900
C674        C  0.18283114  0.37486591  0.98373591     0.14000
C675        C  0.19511740  0.41675309  0.96786301    -0.23700
H676        H  0.23707355  0.34642781  0.95779295     0.15200
H677        H  0.11091221  0.32455888  0.04235385     0.15300
C678        C  0.16036647  0.25960845  0.04554343    -0.23700
H679        H  0.22515266  0.41598279  0.95118498     0.05500
H680        H  0.19856886  0.43822629  0.99402087     0.08700
H681        H  0.17153998  0.42893955  0.94660851     0.08700
H682        H  0.18668933  0.23780694  0.04412035     0.08700
H683        H  0.13193465  0.24403989  0.03465711     0.08700
H684        H  0.15613847  0.26787581  0.07832695     0.05500
C685        C  0.80349303  0.50056705  0.82191862    -0.20300
C686        C  0.80780046  0.46492577  0.79768692    -0.06900
C687        C  0.84218555  0.43875186  0.80515039     0.14000
C688        C  0.87055887  0.44860353  0.83614087    -0.20400
C689        C  0.86541725  0.48317423  0.86118727    -0.06900
C690        C  0.83182296  0.50996520  0.85354328     0.14000
C691        C  0.82653619  0.54890752  0.87791874    -0.23700
H692        H  0.77762633  0.52094326  0.81626833     0.15200
H693        H  0.89653765  0.42826736  0.84180091     0.15300
C694        C  0.84819960  0.39881764  0.78262159    -0.23700
H695        H  0.79931056  0.56691594  0.86751977     0.05500
H696        H  0.85445178  0.56845718  0.87429007     0.08700
H697        H  0.82204596  0.54148401  0.91088543     0.08700
H698        H  0.81936811  0.38038712  0.78380518     0.08700
H699        H  0.87326387  0.37995811  0.79635528     0.08700
H700        H  0.85743578  0.40477382  0.75048901     0.05500
C701        C  0.15012550  0.52308281  0.83849927    -0.20300
C702        C  0.13811907  0.48768355  0.86036016    -0.06900
C703        C  0.15653271  0.44957224  0.84976561     0.14000
C704        C  0.18714897  0.44820413  0.81897730    -0.20400
C705        C  0.19969711  0.48357785  0.79763166    -0.06900
C706        C  0.18096867  0.52162496  0.80772528     0.14000
C707        C  0.19373521  0.56130421  0.78767058    -0.23700
H708        H  0.13566097  0.55226311  0.84575688     0.15200
H709        H  0.20102965  0.41895777  0.81091546     0.15300
C710        C  0.14399160  0.40942246  0.86923808    -0.23700
H711        H  0.20429199  0.58318664  0.81151388     0.05500
H712        H  0.16699588  0.57491370  0.77122413     0.08700
H713        H  0.21950142  0.55704577  0.76563926     0.08700
H714        H  0.11952836  0.41298867  0.89288699     0.08700
H715        H  0.17136349  0.39467543  0.88350379     0.08700
H716        H  0.13229384  0.38837761  0.84528355     0.05500
C717        C  0.13819012  0.53550541  0.16438884    -0.20300
C718        C  0.13840759  0.50304200  0.13601158    -0.06900
C719        C  0.16973181  0.47275414  0.13884408     0.14000
C720        C  0.19932896  0.47529617  0.17030730    -0.20400
C721        C  0.19928494  0.50784327  0.19863246    -0.06900
C722        C  0.16896117  0.53904035  0.19466624     0.14000
C723        C  0.16978278  0.57776382  0.21982962    -0.23700
H724        H  0.11485725  0.55933916  0.16176257     0.15200
H725        H  0.22274669  0.45162311  0.17300151     0.15300
C726        C  0.17145513  0.43708929  0.10943339    -0.23700
H727        H  0.14154863  0.57950581  0.23924690     0.05500
H728        H  0.17057475  0.60485584  0.19902091     0.08700
H729        H  0.19730682  0.57986421  0.23975441     0.08700
H730        H  0.17652524  0.44841859  0.07767030     0.08700
H731        H  0.14202298  0.41960595  0.11090864     0.08700
H732        H  0.19713285  0.41563857  0.11682153     0.05500
C733        C  0.85252679  0.53012140  0.16043127    -0.20300
C734        C  0.86086410  0.49521508  0.13646288    -0.06900
C735        C  0.83659069  0.45957063  0.14279281     0.14000
C736        C  0.80597409  0.45926313  0.17377539    -0.20400
C737        C  0.79792991  0.49407067  0.19801472    -0.06900
C738        C  0.82077665  0.53031870  0.19028264     0.14000
C739        C  0.81072382  0.57023906  0.21119575    -0.23700
H740        H  0.86951863  0.55808807  0.15447029     0.15200
H741        H  0.78794887  0.43171469  0.17910204     0.15300
C742        C  0.84300115  0.42175489  0.11695832    -0.23700
H743        H  0.83712514  0.57980762  0.23057722     0.05500
H744        H  0.78254365  0.56808970  0.23045628     0.08700
H745        H  0.80489847  0.59433435  0.18770724     0.08700
H746        H  0.87537181  0.41092334  0.11982875     0.08700
H747        H  0.83662287  0.42897958  0.08429534     0.08700
H748        H  0.82214251  0.39631352  0.12645565     0.05500
C749        C  0.54492796  0.31024747  0.81570690    -0.20300
C750        C  0.50955772  0.28732697  0.80639058    -0.06900
C751        C  0.47197648  0.29516904  0.82720292     0.14000
C752        C  0.47061847  0.32666768  0.85644291    -0.20400
C753        C  0.50530873  0.35149292  0.86324554    -0.06900
C754        C  0.54305811  0.34278766  0.84347686     0.14000
C755        C  0.58097390  0.36856942  0.85088362    -0.23700
H756        H  0.57336884  0.30451946  0.79889858     0.15200
H757        H  0.44199941  0.33323550  0.87262500     0.15300
C758        C  0.43278813  0.27261374  0.81658835    -0.23700
H759        H  0.60830379  0.35679315  0.83380302     0.05500
H760        H  0.58845587  0.36861751  0.88403257     0.08700
H761        H  0.57515588  0.40065507  0.84076314     0.08700
H762        H  0.43630759  0.23951645  0.82374413     0.08700
H763        H  0.42581297  0.27653109  0.78347238     0.08700
H764        H  0.40588031  0.28425947  0.83441231     0.05500
C765        C  0.47765907  0.67223254  0.80358503    -0.20300
C766        C  0.50978354  0.70081598  0.80901440    -0.06900
C767        C  0.53629650  0.69675341  0.84280811     0.14000
C768        C  0.53115616  0.66332660  0.86946478    -0.20400
C769        C  0.50121877  0.63292585  0.86218015    -0.06900
C770        C  0.47315320  0.63807516  0.82953746     0.14000
C771        C  0.43848547  0.60844938  0.82088486    -0.23700
H772        H  0.45774875  0.67501213  0.77702092     0.15200
H773        H  0.55199502  0.65982076  0.89521713     0.15300
C774        C  0.57175659  0.72585177  0.84925190    -0.23700
H775        H  0.40854878  0.62519720  0.82131501     0.05500
H776        H  0.43626079  0.58319162  0.84358023     0.08700
H777        H  0.44298391  0.59471426  0.79004475     0.08700
H778        H  0.55978035  0.75723981  0.85505832     0.08700
H779        H  0.59225402  0.72620491  0.82183944     0.08700
H780        H  0.59063832  0.71652429  0.87602118     0.05500
C781        C  0.51893741  0.65976197  0.13245417    -0.20300
C782        C  0.48607544  0.63271278  0.12531480    -0.06900
C783        C  0.44684052  0.64107238  0.14241541     0.14000
C784        C  0.44207415  0.67499164  0.16847587    -0.20400
C785        C  0.47560274  0.70064668  0.17795700    -0.06900
C786        C  0.51435848  0.69339799  0.15904211     0.14000
C787        C  0.55149468  0.71953671  0.16842929    -0.23700
H788        H  0.54858553  0.65387689  0.11792773     0.15200
H789        H  0.41261331  0.68005366  0.18367318     0.15300
C790        C  0.41016938  0.61399618  0.13353282    -0.23700
H791        H  0.57980812  0.70784317  0.15293659     0.05500
H792        H  0.55735253  0.71984415  0.20196186     0.08700
H793        H  0.54612368  0.75127682  0.15731379     0.08700
H794        H  0.41639588  0.58223751  0.14443285     0.08700
H795        H  0.40426271  0.61341865  0.10000267     0.08700
H796        H  0.38167603  0.62519476  0.14908153     0.05500
C797        C  0.44696868  0.34266231  0.13625012    -0.20300
C798        C  0.48751178  0.35469222  0.12761614    -0.06900
C799        C  0.52087891  0.33187799  0.14343535     0.14000
C800        C  0.51275423  0.29952800  0.17084981    -0.20400
C801        C  0.47198226  0.28952337  0.18181218    -0.06900
C802        C  0.43864366  0.31049180  0.16336223     0.14000
C803        C  0.39403863  0.30000044  0.17198683    -0.23700
H804        H  0.42162294  0.35822817  0.12146588     0.15200
H805        H  0.53820053  0.28349279  0.18540569     0.15300
C806        C  0.56471407  0.34188212  0.13144982    -0.23700
H807        H  0.37821991  0.32688524  0.18594948     0.05500
H808        H  0.39053355  0.27337866  0.19301236     0.08700
H809        H  0.37839460  0.29218391  0.14277055     0.08700
H810        H  0.57183876  0.37412613  0.13984764     0.08700
H811        H  0.56857849  0.33805649  0.09780499     0.08700
H812        H  0.58724594  0.32138956  0.14702262     0.05500
C813        C  0.65788177  0.13799338  0.95794094    -0.20300
C814        C  0.63245568  0.13575817  0.99261931    -0.06900
C815        C  0.63401607  0.16707314  0.02260190     0.14000
C816        C  0.66247826  0.19923198  0.01775272    -0.20400
C817        C  0.69001930  0.19974659  0.98447901    -0.06900
C818        C  0.68672236  0.16956796  0.95346237     0.14000
C819        C  0.71411205  0.16894692  0.91589641    -0.23700
H820        H  0.65555164  0.11463306  0.93437377     0.15200
H821        H  0.66591450  0.22179551  0.04191425     0.15300
C822        C  0.60813099  0.16495028  0.06116657    -0.23700
H823        H  0.69465772  0.17132692  0.88800243     0.05500
H824        H  0.73167548  0.13961477  0.91486696     0.08700
H825        H  0.73665738  0.19451133  0.91509614     0.08700
H826        H  0.61514226  0.13607381  0.07801096     0.08700
H827        H  0.57476923  0.16580392  0.05351448     0.08700
H828        H  0.61451062  0.19115195  0.08197090     0.05500
C829        C  0.32494883  0.86435273  0.98774486    -0.20300
C830        C  0.36667520  0.85417743  0.99284687    -0.06900
C831        C  0.37805932  0.81173998  0.99302554     0.14000
C832        C  0.34875170  0.78216555  0.98165411    -0.20400
C833        C  0.30812085  0.79323880  0.97197766    -0.06900
C834        C  0.29535304  0.83441638  0.97931466     0.14000
C835        C  0.25077669  0.84823728  0.97987407    -0.23700
H836        H  0.31496387  0.89607387  0.99025085     0.15200
H837        H  0.35860575  0.75068282  0.97870946     0.15300
C838        C  0.42060895  0.79654049  0.00477955    -0.23700
H839        H  0.24441418  0.86513464  0.00879339     0.05500
H840        H  0.22858657  0.82238491  0.97933620     0.08700
H841        H  0.24492005  0.86921968  0.95358624     0.08700
H842        H  0.42910680  0.80874219  0.03537582     0.08700
H843        H  0.44390434  0.80583173  0.98151751     0.08700
H844        H  0.42187658  0.76246781  0.00686036     0.05500
C845        C  0.62729820  0.82899663  0.95918888    -0.20300
C846        C  0.63138837  0.85539363  0.99292720    -0.06900
C847        C  0.65998752  0.84608537  0.02398535     0.14000
C848        C  0.68530508  0.81144178  0.01964167    -0.20400
C849        C  0.68352121  0.78698461  0.98432294    -0.06900
C850        C  0.65381401  0.79541203  0.95400773     0.14000
C851        C  0.65185962  0.77073007  0.91509498    -0.23700
H852        H  0.60440823  0.83581199  0.93589840     0.15200
H853        H  0.70908628  0.80540998  0.04222324     0.15300
C854        C  0.66401174  0.87264865  0.06137193    -0.23700
H855        H  0.64454728  0.73832438  0.92266172     0.05500
H856        H  0.68195317  0.77213612  0.89863720     0.08700
H857        H  0.62768066  0.78259193  0.89405709     0.08700
H858        H  0.63391007  0.87363100  0.07777562     0.08700
H859        H  0.67322704  0.90422917  0.05220354     0.08700
H860        H  0.68768499  0.86059047  0.08287326     0.05500
C861        C  0.34724075  0.15179361  0.01692334    -0.20300
C862        C  0.36540492  0.13377082  0.98237963    -0.06900
C863        C  0.35735535  0.14957820  0.94293261     0.14000
C864        C  0.32817528  0.18092376  0.93850706    -0.20400
C865        C  0.30898477  0.19824916  0.97289721    -0.06900
C866        C  0.31928563  0.18435360  0.01274762     0.14000
C867        C  0.30020495  0.20176819  0.05130848    -0.23700
H868        H  0.35452771  0.14012346  0.04720509     0.15200
H869        H  0.31930025  0.19101844  0.90807403     0.15300
C870        C  0.37910323  0.13286162  0.90559339    -0.23700
H871        H  0.32498639  0.21417308  0.07120870     0.05500
H872        H  0.28362037  0.17707833  0.06821013     0.08700
H873        H  0.27790996  0.22688551  0.04543444     0.08700
H874        H  0.37235453  0.09959548  0.90278069     0.08700
H875        H  0.41298544  0.13728088  0.90862214     0.08700
H876        H  0.36902108  0.14857520  0.87702856     0.05500
C877        C  0.47085879  0.13222424  0.82607380    -0.20300
C878        C  0.50308745  0.13057308  0.85472368    -0.06900
C879        C  0.53535997  0.15970153  0.85186808     0.14000
C880        C  0.53401573  0.19017711  0.82113447    -0.20400
C881        C  0.50124346  0.19255421  0.79300874    -0.06900
C882        C  0.46888531  0.16331270  0.79601165     0.14000
C883        C  0.43058895  0.16539987  0.77002114    -0.23700
H884        H  0.44591991  0.11023523  0.82842960     0.15200
H885        H  0.55904212  0.21214035  0.81861513     0.15300
C886        C  0.57207070  0.15776932  0.88014683    -0.23700
H887        H  0.40280363  0.16575598  0.79017149     0.05500
H888        H  0.42912230  0.13800700  0.74983107     0.08700
H889        H  0.42924653  0.19357620  0.75099711     0.08700
H890        H  0.58775269  0.12757442  0.87688961     0.08700
H891        H  0.56197178  0.16181214  0.91244997     0.08700
H892        H  0.59497440  0.18221880  0.87305453     0.05500
C893        C  0.54007879  0.85784683  0.83224065    -0.20300
C894        C  0.50530032  0.85801838  0.85811916    -0.06900
C895        C  0.47453352  0.82768635  0.85221368     0.14000
C896        C  0.47981879  0.79759848  0.82130158    -0.20400
C897        C  0.51462512  0.79756177  0.79514561    -0.06900
C898        C  0.54539202  0.82801635  0.80134081     0.14000
C899        C  0.58525106  0.82800582  0.77729894    -0.23700
H900        H  0.56381472  0.88086694  0.83685090     0.15200
H901        H  0.45635428  0.77430716  0.81698653     0.15300
C902        C  0.43547352  0.82788942  0.87752651    -0.23700
H903        H  0.60733922  0.85102781  0.78922554     0.05500
H904        H  0.57950628  0.83640672  0.74501439     0.08700
H905        H  0.60018013  0.79731286  0.77909209     0.08700
H906        H  0.41880339  0.85741603  0.87296495     0.08700
H907        H  0.44305193  0.82425534  0.91043883     0.08700
H908        H  0.41442239  0.80244641  0.86884578     0.05500
C909        C  0.45810357  0.83554186  0.13289430    -0.20300
C910        C  0.49297927  0.86104495  0.13337105    -0.06900
C911        C  0.52321748  0.85485044  0.16393433     0.14000
C912        C  0.51791030  0.82317068  0.19303494    -0.20400
C913        C  0.48308982  0.79736257  0.19244890    -0.06900
C914        C  0.45225339  0.80451870  0.16244191     0.14000
C915        C  0.41185187  0.78163243  0.16162096    -0.23700
H916        H  0.43449227  0.84070519  0.10990754     0.15200
H917        H  0.54153400  0.81777938  0.21588240     0.15300
C918        C  0.56198816  0.88023487  0.16473493    -0.23700
H919        H  0.38587128  0.80399057  0.16236632     0.05500
H920        H  0.40756426  0.76091628  0.18823614     0.08700
H921        H  0.40985283  0.76342503  0.13293302     0.08700
H922        H  0.55420717  0.91313630  0.16930372     0.08700
H923        H  0.57887590  0.87651325  0.13525595     0.08700
H924        H  0.58286103  0.87059912  0.18997677     0.05500
C925        C  0.52057169  0.13747998  0.16346063    -0.20300
C926        C  0.49182247  0.13523895  0.13114834    -0.06900
C927        C  0.45877081  0.16375856  0.13066509     0.14000
C928        C  0.45479598  0.19280121  0.16240242    -0.20400
C929        C  0.48350753  0.19548850  0.19458668    -0.06900
C930        C  0.51759154  0.16798249  0.19431702     0.14000
C931        C  0.55232634  0.17126341  0.22460948    -0.23700
H932        H  0.54634045  0.11613105  0.16391553     0.15200
H933        H  0.42854867  0.21346106  0.16240825     0.15300
C934        C  0.42651837  0.16272799  0.09748792    -0.23700
H935        H  0.58198548  0.17478339  0.20774146     0.05500
H936        H  0.55364047  0.14302646  0.24379372     0.08700
H937        H  0.54927497  0.19844362  0.24473958     0.08700
H938        H  0.41183162  0.13191732  0.09678707     0.08700
H939        H  0.44093905  0.16939873  0.06724575     0.08700
H940        H  0.40186025  0.18597421  0.10264995     0.05500
C941        C  0.30843000  0.97107068  0.17519609    -0.20300
C942        C  0.30946099  0.00663315  0.19957510    -0.06900
C943        C  0.33920561  0.03724045  0.19145592     0.14000
C944        C  0.36677481  0.03190232  0.15875686    -0.20400
C945        C  0.36417225  0.99760278  0.13299696    -0.06900
C946        C  0.33549105  0.96620504  0.14174971     0.14000
C947        C  0.33350368  0.92783659  0.11606092    -0.23700
H948        H  0.28479092  0.94815182  0.18099781     0.15200
H949        H  0.38966432  0.05541511  0.15226287     0.15300
C950        C  0.34065672  0.07652032  0.21566857    -0.23700
H951        H  0.30936334  0.90633364  0.12744422     0.05500
H952        H  0.36375646  0.91166499  0.11695473     0.08700
H953        H  0.32609415  0.93592247  0.08381506     0.08700
H954        H  0.34886807  0.06950253  0.24781996     0.08700
H955        H  0.31021885  0.09228837  0.21466107     0.08700
H956        H  0.36427458  0.09808542  0.20333884     0.05500
C957        C  0.66749080  0.99680252  0.79365510    -0.20300
C958        C  0.68553184  0.95757331  0.79299538    -0.06900
C959        C  0.67582457  0.92894609  0.82447384     0.14000
C960        C  0.65046186  0.94113803  0.85697331    -0.20400
C961        C  0.63391269  0.98077908  0.85844181    -0.06900
C962        C  0.64164997  0.00878482  0.82618270     0.14000
C963        C  0.62448115  0.05185482  0.82724195    -0.23700
H964        H  0.67576098  0.01899407  0.77016044     0.15200
H965        H  0.64288805  0.91923255  0.88103304     0.15300
C966        C  0.69213327  0.88547116  0.82503558    -0.23700
H967        H  0.63484299  0.07021449  0.80032039     0.05500
H968        H  0.63518664  0.06759130  0.85544365     0.08700
H969        H  0.59018145  0.05107640  0.82711587     0.08700
H970        H  0.71361318  0.88152564  0.85123310     0.08700
H971        H  0.70844270  0.87714606  0.79624013     0.08700
H972        H  0.66614888  0.86358714  0.82901224     0.05500
C973        C  0.33660380  0.99719435  0.78930969    -0.20300
C974        C  0.31088496  0.96271484  0.79228003    -0.06900
C975        C  0.31671498  0.93441709  0.82485805     0.14000
C976        C  0.34445148  0.94392007  0.85623867    -0.20400
C977        C  0.36795948  0.97997325  0.85477644    -0.06900
C978        C  0.36565091  0.00581194  0.81988034     0.14000
C979        C  0.39215568  0.04359494  0.81573166    -0.23700
H980        H  0.33196825  0.01907531  0.76463914     0.15200
H981        H  0.34806005  0.92281735  0.88182017     0.15300
C982        C  0.29372667  0.89422652  0.82758336    -0.23700
H983        H  0.38462830  0.06151893  0.78768215     0.05500
H984        H  0.42523977  0.03473214  0.81374714     0.08700
H985        H  0.38724199  0.06377316  0.84260868     0.08700
H986        H  0.27406589  0.88862729  0.80040205     0.08700
H987        H  0.27392325  0.89388043  0.85550395     0.08700
H988        H  0.31628773  0.86852664  0.82953437     0.05500
C989        C  0.46438504  0.12152068  0.32682885    -0.20300
C990        C  0.49013875  0.13075570  0.36026037    -0.06900
C991        C  0.51386377  0.16702825  0.35941899     0.14000
C992        C  0.50984260  0.19375762  0.32589055    -0.20400
C993        C  0.48203220  0.18570356  0.29376288    -0.06900
C994        C  0.45909487  0.14901841  0.29418176     0.14000
C995        C  0.42739603  0.13958480  0.26187893    -0.23700
H996        H  0.44737665  0.09290082  0.32669257     0.15200
H997        H  0.52690227  0.22243201  0.32573055     0.15300
C998        C  0.54354793  0.17762740  0.39330258    -0.23700
H999        H  0.40995838  0.11115765  0.26938174     0.05500
H1000       H  0.44277268  0.13464639  0.23189994     0.08700
H1001       H  0.40480524  0.16518487  0.25942358     0.08700
H1002       H  0.56611118  0.15229767  0.39765269     0.08700
H1003       H  0.52632720  0.18278256  0.42235838     0.08700
H1004       H  0.56119656  0.20606932  0.38626418     0.05500
C1005       C  0.52463944  0.83179851  0.34996117    -0.20300
C1006       C  0.49774918  0.86549194  0.35019107    -0.06900
C1007       C  0.46981511  0.87091376  0.31706213     0.14000
C1008       C  0.46719748  0.84049362  0.28664585    -0.20400
C1009       C  0.49300697  0.80598079  0.28774587    -0.06900
C1010       C  0.52402196  0.80321893  0.31807375     0.14000
C1011       C  0.55681926  0.77021794  0.31760669    -0.23700
H1012       H  0.54657401  0.82778194  0.37455053     0.15200
H1013       H  0.44355636  0.84255114  0.26326174     0.15300
C1014       C  0.44089543  0.90722690  0.31488616    -0.23700
H1015       H  0.58784156  0.78470714  0.31923187     0.05500
H1016       H  0.55624119  0.75161051  0.28914734     0.08700
H1017       H  0.55267938  0.74957940  0.34448109     0.08700
H1018       H  0.45877477  0.93596085  0.31025978     0.08700
H1019       H  0.42275755  0.90935796  0.34372926     0.08700
H1020       H  0.41885162  0.90461515  0.28900008     0.05500
C1021       C  0.46760831  0.15304711  0.63446331    -0.20300
C1022       C  0.49610907  0.12089890  0.63735773    -0.06900
C1023       C  0.52223669  0.11773595  0.67202285     0.14000
C1024       C  0.52093914  0.14886438  0.70163245    -0.20400
C1025       C  0.49420911  0.18239706  0.69704213    -0.06900
C1026       C  0.46568822  0.18339575  0.66430973     0.14000
C1027       C  0.43314856  0.21636323  0.65960287    -0.23700
H1028       H  0.44657379  0.15451137  0.60865429     0.15200
H1029       H  0.54270631  0.14847437  0.72681494     0.15300
C1030       C  0.55336265  0.08343662  0.67661423    -0.23700
H1031       H  0.40223517  0.20179956  0.65713438     0.05500
H1032       H  0.43930118  0.23442786  0.63127206     0.08700
H1033       H  0.43176490  0.23764879  0.68605697     0.08700
H1034       H  0.57412346  0.08262204  0.64940362     0.08700
H1035       H  0.53729485  0.05349825  0.67988292     0.08700
H1036       H  0.57284689  0.08752018  0.70427331     0.05500
C1037       C  0.47733039  0.84650192  0.65577394    -0.20300
C1038       C  0.50920459  0.85394250  0.62745157    -0.06900
C1039       C  0.54863884  0.83683488  0.63374586     0.14000
C1040       C  0.55547553  0.81280891  0.66864568    -0.20400
C1041       C  0.52346881  0.80413717  0.69670878    -0.06900
C1042       C  0.48364528  0.82083774  0.68989094     0.14000
C1043       C  0.44728927  0.81033639  0.71695089    -0.23700
H1044       H  0.44730315  0.86051086  0.65084950     0.15200
H1045       H  0.58562377  0.79890303  0.67313795     0.15300
C1046       C  0.58341953  0.84365944  0.60348759    -0.23700
H1047       H  0.41792917  0.82284179  0.70447254     0.05500
H1048       H  0.45161458  0.82402921  0.74762861     0.08700
H1049       H  0.44388893  0.77647768  0.71962565     0.08700
H1050       H  0.58989696  0.87699663  0.60030476     0.08700
H1051       H  0.57466240  0.83113888  0.57309321     0.08700
H1052       H  0.61236216  0.82813887  0.61329257     0.05500
C1053       C  0.34307865  0.96530404  0.33931251    -0.20300
C1054       C  0.35829539  0.00046858  0.35928210    -0.06900
C1055       C  0.34235344  0.03930994  0.34789099     0.14000
C1056       C  0.31275972  0.04231284  0.31655221    -0.20400
C1057       C  0.29827372  0.00748604  0.29597982    -0.06900
C1058       C  0.31298529  0.96835803  0.30806755     0.14000
C1059       C  0.29653966  0.92946565  0.28943950    -0.23700
H1060       H  0.35415148  0.93526320  0.34853225     0.15200
H1061       H  0.30069821  0.07214950  0.30787982     0.15300
C1062       C  0.35602577  0.07768772  0.36935440    -0.23700
H1063       H  0.28214575  0.91025767  0.31382758     0.05500
H1064       H  0.32229321  0.91201051  0.27506444     0.08700
H1065       H  0.27285238  0.93546030  0.26566430     0.08700
H1066       H  0.38989705  0.08118100  0.36603659     0.08700
H1067       H  0.34800792  0.07547234  0.40243551     0.08700
H1068       H  0.34095358  0.10562464  0.35661650     0.05500
C1069       C  0.63294752  0.95038213  0.65806306    -0.20300
C1070       C  0.63579901  0.98461333  0.63198651    -0.06900
C1071       C  0.66868442  0.01263137  0.63776827     0.14000
C1072       C  0.69702784  0.00616473  0.67014491    -0.20400
C1073       C  0.69443465  0.97147979  0.69613839    -0.06900
C1074       C  0.66218759  0.94278978  0.68904434     0.14000
C1075       C  0.65955205  0.90258124  0.71193994    -0.23700
H1076       H  0.60807690  0.92862282  0.65338920     0.15200
H1077       H  0.72165334  0.02811496  0.67494769     0.15300
C1078       C  0.67351139  0.04967592  0.61034595    -0.23700
H1079       H  0.64836454  0.90768663  0.74359204     0.05500
H1080       H  0.69021652  0.88721068  0.71226655     0.08700
H1081       H  0.63735519  0.88115179  0.69733530     0.08700
H1082       H  0.64502854  0.06866444  0.61165994     0.08700
H1083       H  0.67910410  0.03977534  0.57823667     0.08700
H1084       H  0.69997970  0.06914534  0.61976575     0.05500
C1085       C  0.35267101  0.94398947  0.65586281    -0.20300
C1086       C  0.36075122  0.98152588  0.63596441    -0.06900
C1087       C  0.33748609  0.01648246  0.64761169     0.14000
C1088       C  0.30589915  0.01295678  0.67750341    -0.20400
C1089       C  0.29762157  0.97540170  0.69723540    -0.06900
C1090       C  0.32121018  0.94040338  0.68590784     0.14000
C1091       C  0.31286739  0.89848133  0.70376150    -0.23700
H1092       H  0.37036974  0.91700763  0.64723532     0.15200
H1093       H  0.28821810  0.03983909  0.68637391     0.15300
C1094       C  0.34700471  0.05779875  0.62921565    -0.23700
H1095       H  0.30734517  0.87631110  0.67854579     0.05500
H1096       H  0.28518087  0.89778422  0.72384197     0.08700
H1097       H  0.34003947  0.88812892  0.72175707     0.08700
H1098       H  0.34420120  0.05586525  0.59551830     0.08700
H1099       H  0.37914328  0.06679175  0.63696488     0.08700
H1100       H  0.32562046  0.08200907  0.64058286     0.05500
C1101       C  0.63322056  0.05588463  0.15003130    -0.20300
C1102       C  0.63012290  0.01539413  0.13572037    -0.06900
C1103       C  0.65165270  0.98369146  0.15615827     0.14000
C1104       C  0.67705335  0.99346409  0.18944924    -0.20400
C1105       C  0.68240794  0.03428425  0.20190089    -0.06900
C1106       C  0.65989598  0.06587459  0.18227517     0.14000
C1107       C  0.66436113  0.11043390  0.19380703    -0.23700
H1108       H  0.61565354  0.08006318  0.13513521     0.15200
H1109       H  0.69514415  0.96936847  0.20387624     0.15300
C1110       C  0.64950107  0.93955138  0.14298331    -0.23700
H1111       H  0.63389830  0.12253702  0.20381135     0.05500
H1112       H  0.67526599  0.12830749  0.16678500     0.08700
H1113       H  0.68650751  0.11526806  0.21918936     0.08700
H1114       H  0.68073532  0.92902411  0.13337911     0.08700
H1115       H  0.62797918  0.93485604  0.11711532     0.08700
H1116       H  0.63900843  0.92036784  0.16918068     0.05500
C1117       C  0.66388837  0.05425105  0.30263255    -0.20300
C1118       C  0.69525788  0.02490142  0.29634755    -0.06900
C1119       C  0.69518805  0.98888859  0.32073470     0.14000
C1120       C  0.66562963  0.98439787  0.35226784    -0.20400
C1121       C  0.63395272  0.01336906  0.35804495    -0.06900
C1122       C  0.63293293  0.04867713  0.33262607     0.14000
C1123       C  0.59996812  0.08110101  0.33784742    -0.23700
H1124       H  0.66384738  0.08185800  0.28402226     0.15200
H1125       H  0.66636427  0.95714711  0.37134409     0.15300
C1126       C  0.72406029  0.95355033  0.31269647    -0.23700
H1127       H  0.60506788  0.10776660  0.31707523     0.05500
H1128       H  0.60007761  0.09244687  0.36991612     0.08700
H1129       H  0.56915433  0.06803411  0.33077025     0.08700
H1130       H  0.74265982  0.95796350  0.28442135     0.08700
H1131       H  0.70581031  0.92499828  0.30846975     0.08700
H1132       H  0.74506233  0.94937048  0.33923107     0.05500
C1133       C  0.32318272  0.81248455  0.44134693    -0.20300
C1134       C  0.29500574  0.80585640  0.47357157    -0.06900
C1135       C  0.30061668  0.82570621  0.51160568     0.14000
C1136       C  0.33458942  0.85166673  0.51640110    -0.20400
C1137       C  0.36336019  0.85686010  0.48464562    -0.15300
C1138       C  0.35757177  0.83767325  0.44650827     0.14000
C1139       C  0.38732141  0.84409050  0.41128348    -0.23700
H1140       H  0.31928332  0.79612458  0.41267875     0.15200
H1141       H  0.33911575  0.86764669  0.54519269     0.15300
C1142       C  0.27247600  0.81818932  0.54781115    -0.23700
H1143       H  0.37770351  0.82703459  0.38345231     0.05500
H1144       H  0.41862895  0.83317990  0.41996324     0.08700
H1145       H  0.38876134  0.87725839  0.40338231     0.08700
H1146       H  0.26977557  0.78473979  0.55406770     0.08700
H1147       H  0.24160784  0.83145721  0.54163432     0.08700
H1148       H  0.28428147  0.83307221  0.57605263     0.05500
C1149       C  0.68692124  0.82982635  0.43653170    -0.20300
C1150       C  0.70959779  0.81616059  0.47040306    -0.06900
C1151       C  0.70050480  0.83128547  0.51003264     0.14000
C1152       C  0.66616684  0.85687874  0.51530071    -0.20400
C1153       C  0.64153052  0.86739177  0.48177799    -0.06900
C1154       C  0.65311462  0.85588553  0.44182175     0.14000
C1155       C  0.62933943  0.87082550  0.40508767    -0.23700
H1156       H  0.69392817  0.81777270  0.40630277     0.15200
H1157       H  0.65812467  0.86822101  0.54556370     0.15300
C1158       C  0.72562068  0.81910951  0.54693798    -0.23700
H1159       H  0.64234674  0.85883342  0.37588241     0.05500
H1160       H  0.62999391  0.90486847  0.40398083     0.08700
H1161       H  0.59678477  0.86084524  0.40786307     0.08700
H1162       H  0.72713268  0.78514650  0.54986976     0.08700
H1163       H  0.71213403  0.83149546  0.57577478     0.08700
H1164       H  0.75722851  0.83182051  0.54384381     0.05500
C1165       C  0.66142879  0.13309358  0.47236277    -0.20300
C1166       C  0.63168934  0.13139193  0.50379534    -0.06900
C1167       C  0.63463180  0.15774864  0.53782464     0.14000
C1168       C  0.66723949  0.18578401  0.53929870    -0.20400
C1169       C  0.69610123  0.18877823  0.50710352    -0.06900
C1170       C  0.69311226  0.16235527  0.47304371     0.14000
C1171       C  0.72121663  0.16669161  0.43628411    -0.23700
H1172       H  0.65882029  0.11245183  0.44643326     0.15200
H1173       H  0.66898414  0.20721101  0.56466317     0.15300
C1174       C  0.60343212  0.15660283  0.57235381    -0.23700
H1175       H  0.71251278  0.14521898  0.41135498     0.05500
H1176       H  0.75348690  0.15963009  0.44502573     0.08700
H1177       H  0.71939712  0.19846010  0.42387215     0.08700
H1178       H  0.60243954  0.12540563  0.58612159     0.08700
H1179       H  0.57230443  0.16464884  0.56058157     0.08700
H1180       H  0.61116813  0.17880634  0.59696929     0.05500
C1181       C  0.32426903  0.18318633  0.46677585    -0.20300
C1182       C  0.29342748  0.18222252  0.49716896    -0.06900
C1183       C  0.29189900  0.14954568  0.52559876     0.14000
C1184       C  0.32224131  0.11905989  0.52323643    -0.20400
C1185       C  0.35560995  0.12277852  0.49587935    -0.06900
C1186       C  0.35644780  0.15482070  0.46677422     0.14000
C1187       C  0.39163871  0.16027010  0.43664261    -0.23700
H1188       H  0.32522360  0.20869760  0.44528815     0.15200
H1189       H  0.32116040  0.09349088  0.54432950     0.15300
C1190       C  0.26086426  0.14809445  0.56021154    -0.23700
H1191       H  0.38519801  0.18505407  0.41404817     0.05500
H1192       H  0.39716118  0.13148270  0.41949504     0.08700
H1193       H  0.42027697  0.16869832  0.45319812     0.08700
H1194       H  0.22959701  0.14215150  0.54801845     0.08700
H1195       H  0.26107398  0.17749422  0.57741351     0.08700
H1196       H  0.26793234  0.12298640  0.58228232     0.05500
C1197       C  0.79232436  0.95261627  0.65036672    -0.20300
C1198       C  0.79085216  0.97859054  0.68434420    -0.06900
C1199       C  0.81971570  0.01098672  0.68793922     0.14000
C1200       C  0.85197159  0.01412877  0.65956219    -0.20400
C1201       C  0.85472984  0.98705805  0.62653018    -0.06900
C1202       C  0.82355365  0.95691064  0.62075505     0.14000
C1203       C  0.82392354  0.92798180  0.58467357    -0.23700
H1204       H  0.77033826  0.92758774  0.64821851     0.15200
H1205       H  0.87484051  0.03822304  0.66297708     0.15300
C1206       C  0.81763328  0.04229438  0.72185325    -0.23700
H1207       H  0.81839566  0.94532351  0.55586276     0.05500
H1208       H  0.79937139  0.90424553  0.58723720     0.08700
H1209       H  0.85415872  0.91203431  0.58281028     0.08700
H1210       H  0.84552416  0.03962636  0.74141531     0.08700
H1211       H  0.78972035  0.03864421  0.74141081     0.08700
H1212       H  0.81657457  0.07364359  0.70830007     0.05500
C1213       C  0.19778261  0.96028324  0.65880930    -0.20300
C1214       C  0.20203823  0.99127965  0.68808857    -0.06900
C1215       C  0.17502192  0.02558445  0.68729198     0.14000
C1216       C  0.14225422  0.02639203  0.65938242    -0.20400
C1217       C  0.13660988  0.99427715  0.63158950    -0.06900
C1218       C  0.16536949  0.96138436  0.63039969     0.14000
C1219       C  0.16046219  0.92612803  0.60093122    -0.23700
H1220       H  0.21803915  0.93372047  0.66009699     0.15200
H1221       H  0.12118863  0.05236804  0.65912773     0.15300
C1222       C  0.17975747  0.06154680  0.71591523    -0.23700
H1223       H  0.18402216  0.90177740  0.60601684     0.05500
H1224       H  0.16393743  0.93711798  0.56886950     0.08700
H1225       H  0.12941580  0.91225048  0.60513042     0.08700
H1226       H  0.20753845  0.05886004  0.73556964     0.08700
H1227       H  0.15198661  0.06406693  0.73591262     0.08700
H1228       H  0.18289506  0.09027735  0.69768203     0.05500
C1229       C  0.15820485  0.04461637  0.36224785    -0.20300
C1230       C  0.13964756  0.00601975  0.36693544    -0.06900
C1231       C  0.15493734  0.97196632  0.34504049     0.14000
C1232       C  0.18730299  0.97786276  0.31692482    -0.20400
C1233       C  0.20372768  0.01714871  0.30986092    -0.06900
C1234       C  0.18943210  0.05089658  0.33309469     0.14000
C1235       C  0.20510790  0.09403712  0.32671303    -0.23700
H1236       H  0.14693655  0.07041815  0.38013241     0.15200
H1237       H  0.19791423  0.95229447  0.29836642     0.15300
C1238       C  0.13659586  0.92983069  0.35079830    -0.23700
H1239       H  0.17892408  0.11450934  0.31838171     0.05500
H1240       H  0.22873722  0.09617284  0.30208021     0.08700
H1241       H  0.21916899  0.10529808  0.35556693     0.08700
H1242       H  0.10338364  0.93028184  0.34237143     0.08700
H1243       H  0.13936594  0.92042248  0.38331924     0.08700
H1244       H  0.15254368  0.90648164  0.33158223     0.05500
C1245       C  0.82249665  0.99399012  0.30014646    -0.20300
C1246       C  0.79346954  0.02561120  0.30651167    -0.06900
C1247       C  0.79573263  0.04943862  0.34251615     0.14000
C1248       C  0.82778294  0.04179931  0.37046837    -0.20400
C1249       C  0.85829645  0.01176842  0.36282117    -0.06900
C1250       C  0.85477310  0.98666483  0.32782853     0.14000
C1251       C  0.88440686  0.95178974  0.31983835    -0.23700
H1252       H  0.82075674  0.97588839  0.27232569     0.15200
H1253       H  0.82991574  0.06067544  0.39775516     0.15300
C1254       C  0.76643144  0.08436864  0.35145855    -0.23700
H1255       H  0.87577643  0.93411254  0.29206891     0.05500
H1256       H  0.88421867  0.93031731  0.34638402     0.08700
H1257       H  0.91612140  0.96384179  0.31496814     0.08700
H1258       H  0.74348151  0.08932731  0.32685863     0.08700
H1259       H  0.78419281  0.11331371  0.35500222     0.08700
H1260       H  0.74943988  0.07796895  0.38045723     0.05500
C1261       C  0.16601430  0.86513955  0.46172071    -0.20300
C1262       C  0.13666037  0.86223440  0.49351241    -0.06900
C1263       C  0.13816031  0.82735105  0.51962194     0.14000
C1264       C  0.16886058  0.79711375  0.51357305    -0.20400
C1265       C  0.19719730  0.79920859  0.48080915    -0.06900
C1266       C  0.19466931  0.83338161  0.45372870     0.14000
C1267       C  0.21922810  0.83619837  0.41446277    -0.23700
H1268       H  0.16507969  0.89143138  0.44139022     0.15200
H1269       H  0.17092639  0.77158517  0.53482391     0.15300
C1270       C  0.10834160  0.82218100  0.55474658    -0.23700
H1271       H  0.19777310  0.84085946  0.38832922     0.05500
H1272       H  0.23699333  0.80791754  0.40775499     0.08700
H1273       H  0.24071270  0.86273510  0.41588995     0.08700
H1274       H  0.07626140  0.81989446  0.54312707     0.08700
H1275       H  0.11096156  0.84877363  0.57568345     0.08700
H1276       H  0.11476935  0.79382193  0.57268945     0.05500
C1277       C  0.83856275  0.86126131  0.45304187    -0.20300
C1278       C  0.86170020  0.86275812  0.48926793    -0.06900
C1279       C  0.85658012  0.83109308  0.51883788     0.14000
C1280       C  0.82738274  0.79979257  0.51199050    -0.20400
C1281       C  0.80358573  0.79885698  0.47612994    -0.06900
C1282       C  0.81088480  0.82896510  0.44544913     0.14000
C1283       C  0.79243848  0.82617008  0.40322671    -0.23700
H1284       H  0.84370866  0.88435282  0.42948766     0.15200
H1285       H  0.82228186  0.77653286  0.53532102     0.15300
C1286       C  0.88055651  0.82970676  0.55832977    -0.23700
H1287       H  0.81776032  0.82505498  0.38008810     0.05500
H1288       H  0.77295119  0.85360830  0.39714896     0.08700
H1289       H  0.77356387  0.79814346  0.39899307     0.08700
H1290       H  0.90163007  0.85619137  0.56217856     0.08700
H1291       H  0.89932155  0.80112898  0.55943685     0.08700
H1292       H  0.85861073  0.82964634  0.58461745     0.05500
C1293       C  0.82527812  0.13572896  0.53005427    -0.20300
C1294       C  0.85684658  0.13772226  0.50019825    -0.06900
C1295       C  0.85697113  0.17145964  0.47260675     0.14000
C1296       C  0.82534745  0.20125413  0.47484014    -0.20400
C1297       C  0.79412605  0.19976818  0.50499552    -0.06900
C1298       C  0.79522104  0.16711632  0.53397909     0.14000
C1299       C  0.76739102  0.16595254  0.57110995    -0.23700
H1300       H  0.82540965  0.11061875  0.55200398     0.15200
H1301       H  0.82469735  0.22581870  0.45239682     0.15300
C1302       C  0.88965369  0.17568422  0.43973529    -0.23700
H1303       H  0.78641092  0.16231727  0.59917378     0.05500
H1304       H  0.74588733  0.13948587  0.56892527     0.08700
H1305       H  0.74945646  0.19470501  0.57500250     0.08700
H1306       H  0.88991187  0.14787922  0.42005890     0.08700
H1307       H  0.92048994  0.17977823  0.45389607     0.08700
H1308       H  0.88401699  0.20282914  0.41977409     0.05500
C1309       C  0.16514558  0.13741948  0.46991200    -0.20300
C1310       C  0.13410487  0.13795903  0.50014418    -0.06900
C1311       C  0.13418213  0.16980734  0.52960579     0.14000
C1312       C  0.16602311  0.19923581  0.52902948    -0.20400
C1313       C  0.19728556  0.19868931  0.49895442    -0.06900
C1314       C  0.19574478  0.16810052  0.46801656     0.14000
C1315       C  0.22388877  0.16835162  0.43113254    -0.23700
H1316       H  0.16453827  0.11377665  0.44653457     0.15200
H1317       H  0.16702602  0.22250166  0.55269856     0.15300
C1318       C  0.10169017  0.17192198  0.56273925    -0.23700
H1319       H  0.24320815  0.14009386  0.43095570     0.05500
H1320       H  0.24411507  0.19573803  0.43000458     0.08700
H1321       H  0.20493527  0.16906464  0.40282069     0.08700
H1322       H  0.10148485  0.14257217  0.58009508     0.08700
H1323       H  0.07081620  0.17728374  0.54900653     0.08700
H1324       H  0.10765202  0.19726855  0.58467736     0.05500
C1325       C  0.04496863  0.64920153  0.14483095    -0.20300
C1326       C  0.00590613  0.63257553  0.13704843    -0.06900
C1327       C  0.97371602  0.63835186  0.16604393     0.14000
C1328       C  0.98006225  0.66427908  0.19979687    -0.20400
C1329       C  0.01817601  0.68365826  0.20561501    -0.06900
C1330       C  0.05171279  0.67398122  0.17930560     0.14000
C1331       C  0.09472281  0.68944305  0.18793731    -0.23700
H1332       H  0.07044271  0.64211650  0.12427125     0.15200
H1333       H  0.95441578  0.67167674  0.22002779     0.15300
C1334       C  0.93232931  0.61812669  0.16074714    -0.23700
H1335       H  0.11758059  0.67721878  0.16552131     0.05500
H1336       H  0.10427833  0.67927297  0.21903097     0.08700
H1337       H  0.09587896  0.72343999  0.18632521     0.08700
H1338       H  0.93630364  0.58427531  0.16110254     0.08700
H1339       H  0.91859211  0.62779517  0.13113256     0.08700
H1340       H  0.91044305  0.62637702  0.18578885     0.05500
C1341       C  0.02709859  0.79511516  0.33908180    -0.20300
C1342       C  0.99606032  0.79531789  0.30920870    -0.06900
C1343       C  0.96677242  0.82786640  0.30870595     0.14000
C1344       C  0.97050153  0.86014083  0.33670564    -0.20400
C1345       C  0.00231683  0.86074238  0.36548037    -0.06900
C1346       C  0.03070296  0.82755495  0.36727262     0.14000
C1347       C  0.06629186  0.82748945  0.39704688    -0.23700
H1348       H  0.05030157  0.77103108  0.33847338     0.15200
H1349       H  0.94827826  0.88509762  0.33629525     0.15300
C1350       C  0.93160022  0.82923895  0.27840792    -0.23700
H1351       H  0.08729858  0.80097475  0.39190211     0.05500
H1352       H  0.05461112  0.82542057  0.42902737     0.08700
H1353       H  0.08469881  0.85605001  0.39327279     0.08700
H1354       H  0.91185270  0.80172410  0.28221251     0.08700
H1355       H  0.94329203  0.83071090  0.24645972     0.08700
H1356       H  0.91158846  0.85661791  0.28316811     0.05500
C1357       C  0.98241575  0.30166592  0.82521273    -0.20300
C1358       C  0.01516259  0.30651350  0.79705877    -0.06900
C1359       C  0.04259143  0.33976754  0.80132944     0.14000
C1360       C  0.03716795  0.36673459  0.83437169    -0.20400
C1361       C  0.00588005  0.36050483  0.86383668    -0.06900
C1362       C  0.97750712  0.32817078  0.85868037     0.14000
C1363       C  0.94165679  0.32213198  0.88763721    -0.23700
H1364       H  0.96174733  0.27565928  0.82201538     0.15200
H1365       H  0.05806301  0.39246667  0.83782967     0.15300
C1366       C  0.07855971  0.34587470  0.77242602    -0.23700
H1367       H  0.92200119  0.29575853  0.87848195     0.05500
H1368       H  0.92223871  0.35019363  0.88744944     0.08700
H1369       H  0.95301236  0.31621175  0.91917408     0.08700
H1370       H  0.06708901  0.35164205  0.74099482     0.08700
H1371       H  0.09870189  0.31821516  0.77247744     0.08700
H1372       H  0.09764294  0.37276624  0.78116274     0.05500
C1373       C  0.04731528  0.14028550  0.64871371    -0.20300
C1374       C  0.00871696  0.13983630  0.62972650    -0.06900
C1375       C  0.98051342  0.17232344  0.63661156     0.14000
C1376       C  0.99068923  0.20319098  0.66493938    -0.20400
C1377       C  0.02881443  0.20257969  0.68534151    -0.06900
C1378       C  0.05818611  0.17170801  0.67558723     0.14000
C1379       C  0.10101377  0.17029088  0.69372891    -0.23700
H1380       H  0.06941803  0.11601764  0.64220980     0.15200
H1381       H  0.96792026  0.22631407  0.67300888     0.15300
C1382       C  0.93907461  0.17325672  0.61568711    -0.23700
H1383       H  0.10473390  0.14167791  0.71200860     0.05500
H1384       H  0.10775115  0.19683716  0.71377645     0.08700
H1385       H  0.12432428  0.17039523  0.66859821     0.08700
H1386       H  0.92201725  0.14437001  0.62230262     0.08700
H1387       H  0.94341121  0.17644620  0.58203078     0.08700
H1388       H  0.91983108  0.19946351  0.62637800     0.05500
C1389       C  0.03236208  0.68300529  0.81987912    -0.20300
C1390       C  0.99878992  0.68465423  0.79274738    -0.06900
C1391       C  0.96621668  0.65613469  0.79696257     0.14000
C1392       C  0.96795779  0.62683879  0.82865422    -0.20400
C1393       C  0.00058424  0.62683840  0.85696743    -0.06900
C1394       C  0.03344864  0.65482254  0.85226557     0.14000
C1395       C  0.06944390  0.65539605  0.88156006    -0.23700
H1396       H  0.05668380  0.70578102  0.81717985     0.15200
H1397       H  0.94293551  0.60498942  0.83247780     0.15300
C1398       C  0.92863373  0.65806687  0.76990475    -0.23700
H1399       H  0.09289437  0.67868698  0.87257344     0.05500
H1400       H  0.08477776  0.62483596  0.88202557     0.08700
H1401       H  0.05851303  0.66311909  0.91292740     0.08700
H1402       H  0.93753276  0.65109455  0.73782265     0.08700
H1403       H  0.91441708  0.68911941  0.77140518     0.08700
H1404       H  0.90486811  0.63531396  0.77944658     0.05500
C1405       C  0.95231323  0.82124055  0.68146809    -0.20300
C1406       C  0.98648156  0.79485169  0.68572816    -0.06900
C1407       C  0.02209833  0.80144938  0.66146345     0.14000
C1408       C  0.02295698  0.83500456  0.63442741    -0.20400
C1409       C  0.98959749  0.86240325  0.63174925    -0.06900
C1410       C  0.95343198  0.85511958  0.65496991     0.14000
C1411       C  0.91578770  0.88247059  0.65300509    -0.23700
H1412       H  0.92532364  0.81667879  0.70083637     0.15200
H1413       H  0.05030757  0.84074838  0.61614802     0.15300
C1414       C  0.06000719  0.77483144  0.66555485    -0.23700
H1415       H  0.88829134  0.86385261  0.64498849     0.05500
H1416       H  0.91867238  0.90734285  0.62992004     0.08700
H1417       H  0.91034890  0.89676585  0.68344706     0.08700
H1418       H  0.05274816  0.74304546  0.65596205     0.08700
H1419       H  0.07091387  0.77478454  0.69779376     0.08700
H1420       H  0.08575119  0.78595712  0.64580696     0.05500
C1421       C  0.12307725  0.66638716  0.46104277    -0.20300
C1422       C  0.12490593  0.64047958  0.49548013    -0.06900
C1423       C  0.15333319  0.64823414  0.52696859     0.14000
C1424       C  0.18099462  0.68080487  0.52232502    -0.20400
C1425       C  0.18172812  0.70438174  0.48619931    -0.06900
C1426       C  0.15197997  0.69781805  0.45549706     0.14000
C1427       C  0.15191945  0.72103932  0.41542968    -0.23700
H1428       H  0.10046952  0.66057364  0.43728321     0.15200
H1429       H  0.20452574  0.68572245  0.54539301     0.15300
C1430       C  0.15525544  0.62150615  0.56471693    -0.23700
H1431       H  0.12125224  0.73563094  0.41088965     0.05500
H1432       H  0.15786800  0.69934032  0.38982701     0.08700
H1433       H  0.17563575  0.74552852  0.41403423     0.08700
H1434       H  0.16454025  0.58989988  0.55584922     0.08700
H1435       H  0.12451385  0.62060377  0.58002776     0.08700
H1436       H  0.17815946  0.63307029  0.58716351     0.05500
C1437       C  0.86132887  0.33184946  0.53199855    -0.20300
C1438       C  0.86795140  0.35511296  0.49632161    -0.06900
C1439       C  0.84523886  0.34694447  0.46046721     0.14000
C1440       C  0.81486966  0.31660743  0.46176580    -0.20400
C1441       C  0.80667463  0.29473524  0.49798533    -0.06900
C1442       C  0.83003965  0.30221998  0.53354041     0.14000
C1443       C  0.81982804  0.28149819  0.57371812    -0.23700
H1444       H  0.87905406  0.33858881  0.55932749     0.15200
H1445       H  0.79600090  0.31131050  0.43486446     0.15300
C1446       C  0.85160728  0.37004986  0.42075216    -0.23700
H1447       H  0.84020690  0.29225881  0.59881893     0.05500
H1448       H  0.82378806  0.24778690  0.57077612     0.08700
H1449       H  0.78735501  0.28840968  0.58257871     0.08700
H1450       H  0.87788793  0.39181008  0.42181087     0.08700
H1451       H  0.82322057  0.38769070  0.41324479     0.08700
H1452       H  0.85773056  0.34787550  0.39562052     0.05500
C1453       C  0.18387355  0.32049765  0.54156636    -0.20300
C1454       C  0.18945869  0.29469763  0.50755971    -0.06900
C1455       C  0.16601676  0.30115519  0.47170758     0.14000
C1456       C  0.13818053  0.33423030  0.47055219    -0.20400
C1457       C  0.13469409  0.36149016  0.50372656    -0.06900
C1458       C  0.15699326  0.35407685  0.53997700     0.14000
C1459       C  0.15242764  0.38147576  0.57695008    -0.23700
H1460       H  0.20244203  0.31557273  0.56877433     0.15200
H1461       H  0.11972807  0.33948404  0.44333751     0.15300
C1462       C  0.17172184  0.27491572  0.43404747    -0.23700
H1463       H  0.17154450  0.37058003  0.60304683     0.05500
H1464       H  0.11965953  0.38206957  0.58716678     0.08700
H1465       H  0.16234342  0.41318417  0.56907400     0.08700
H1466       H  0.20474917  0.27446922  0.42459179     0.08700
H1467       H  0.15336633  0.28668903  0.40779828     0.08700
H1468       H  0.16109230  0.24321032  0.44041437     0.05500
C1469       C  0.86571516  0.66052028  0.45835728    -0.20300
C1470       C  0.86023144  0.63253389  0.49077199    -0.06900
C1471       C  0.83034914  0.64008534  0.52127170     0.14000
C1472       C  0.80544476  0.67506467  0.51776788    -0.20400
C1473       C  0.80913398  0.70168255  0.48388652    -0.06900
C1474       C  0.83995727  0.69473194  0.45407952     0.14000
C1475       C  0.84424368  0.72163163  0.41661137    -0.23700
H1476       H  0.88967338  0.65486843  0.43567605     0.15200
H1477       H  0.78101996  0.68024874  0.54008486     0.15300
C1478       C  0.82460716  0.61133000  0.55713494    -0.23700
H1479       H  0.86879975  0.71021361  0.39561483     0.05500
H1480       H  0.85274517  0.75322291  0.42583576     0.08700
H1481       H  0.81473599  0.72228333  0.39935800     0.08700
H1482       H  0.85419867  0.60772146  0.57371402     0.08700
H1483       H  0.81443357  0.58076815  0.54605964     0.08700
H1484       H  0.80102404  0.62293661  0.57912370     0.05500
C1485       C  0.18930148  0.54215801  0.32698501    -0.20300
C1486       C  0.19160291  0.51108727  0.29718588    -0.06900
C1487       C  0.16547798  0.47653308  0.30084552     0.14000
C1488       C  0.13713049  0.47460169  0.33364604    -0.20400
C1489       C  0.13570839  0.50529899  0.36388343    -0.06900
C1490       C  0.16213805  0.53964567  0.36042009     0.14000
C1491       C  0.16287323  0.57422731  0.39115818    -0.23700
H1492       H  0.21032790  0.56805352  0.32502127     0.15200
H1493       H  0.11667260  0.44839836  0.33639822     0.15300
C1494       C  0.16889623  0.44062733  0.27200987    -0.23700
H1495       H  0.15858767  0.60404472  0.37507932     0.05500
H1496       H  0.19331216  0.57463967  0.40676469     0.08700
H1497       H  0.13836214  0.57186592  0.41483004     0.08700
H1498       H  0.20128789  0.42932782  0.27070896     0.08700
H1499       H  0.15857050  0.44983881  0.24101476     0.08700
H1500       H  0.14907945  0.41471442  0.28212594     0.05500
C1501       C  0.83614991  0.52782346  0.35793696    -0.20300
C1502       C  0.86623867  0.49690070  0.35750214    -0.06900
C1503       C  0.86828842  0.46924892  0.32406190     0.14000
C1504       C  0.83840752  0.47177095  0.29305263    -0.20400
C1505       C  0.80699834  0.50136373  0.29471165    -0.06900
C1506       C  0.80680010  0.53080365  0.32666359     0.14000
C1507       C  0.77570688  0.56547956  0.32805750    -0.23700
H1508       H  0.83567333  0.54977755  0.38291375     0.15200
H1509       H  0.83794803  0.44892072  0.26891853     0.15300
C1510       C  0.90034661  0.43558581  0.32213138    -0.23700
H1511       H  0.78101138  0.58604520  0.35465497     0.05500
H1512       H  0.74374968  0.55361069  0.33083428     0.08700
H1513       H  0.77837834  0.58441409  0.29986906     0.08700
H1514       H  0.89890849  0.41662778  0.35045420     0.08700
H1515       H  0.93167887  0.44906707  0.31888470     0.08700
H1516       H  0.89539743  0.41496046  0.29551621     0.05500
C1517       C  0.15213718  0.46947241  0.70568729    -0.20300
C1518       C  0.18725422  0.49433278  0.70256650    -0.06900
C1519       C  0.18988779  0.52440142  0.67114356     0.14000
C1520       C  0.15820509  0.52732214  0.64232524    -0.20400
C1521       C  0.12479068  0.50026524  0.64335831    -0.06900
C1522       C  0.12096217  0.47156487  0.67601590     0.14000
C1523       C  0.08612816  0.44076516  0.67792620    -0.23700
H1524       H  0.15087922  0.44588721  0.72922925     0.15200
H1525       H  0.16038558  0.54965016  0.61775973     0.15300
C1526       C  0.22680740  0.55242079  0.66661317    -0.23700
H1527       H  0.09008362  0.41862580  0.70360803     0.05500
H1528       H  0.08512115  0.42288902  0.64897985     0.08700
H1529       H  0.05618202  0.45674842  0.68272681     0.08700
H1530       H  0.25506129  0.53454185  0.65934272     0.08700
H1531       H  0.23160750  0.56985740  0.69533475     0.08700
H1532       H  0.22250745  0.57502664  0.64136930     0.05500
C1533       C  0.84887532  0.43442719  0.63700082    -0.20300
C1534       C  0.86132827  0.47542486  0.63394157    -0.06900
C1535       C  0.85157773  0.50341112  0.66549316     0.14000
C1536       C  0.82706875  0.49019181  0.69851734    -0.20400
C1537       C  0.81350963  0.44935230  0.70107106    -0.06900
C1538       C  0.82592741  0.42071597  0.67070243     0.14000
C1539       C  0.81620878  0.37541400  0.67326835    -0.23700
H1540       H  0.85846791  0.41260483  0.61368221     0.15200
H1541       H  0.81707946  0.51217249  0.72144743     0.15300
C1542       C  0.86618683  0.54734303  0.66369728    -0.23700
H1543       H  0.84541799  0.35746907  0.67194603     0.05500
H1544       H  0.79652462  0.36642747  0.64696511     0.08700
H1545       H  0.80026749  0.36677072  0.70219248     0.08700
H1546       H  0.85509671  0.56202210  0.63501769     0.08700
H1547       H  0.90047911  0.54840478  0.66434630     0.08700
H1548       H  0.85439654  0.56551984  0.69007008     0.05500
C1549       C  0.96419948  0.66111255  0.35467175    -0.20300
C1550       C  0.99789926  0.63458103  0.36129714    -0.06900
C1551       C  0.03383556  0.63957401  0.33695254     0.14000
C1552       C  0.03554170  0.67106109  0.30721792    -0.20400
C1553       C  0.00182781  0.69737221  0.30006125    -0.06900
C1554       C  0.96523740  0.69146078  0.32352862     0.14000
C1555       C  0.92609556  0.71474210  0.31477272    -0.23700
H1556       H  0.93627227  0.65704279  0.37273701     0.15200
H1557       H  0.06346796  0.67525381  0.28923502     0.15300
C1558       C  0.07089339  0.61218438  0.34300593    -0.23700
H1559       H  0.90036221  0.69272737  0.30995824     0.05500
H1560       H  0.92864304  0.73349032  0.28654376     0.08700
H1561       H  0.91836644  0.73496887  0.34108346     0.08700
H1562       H  0.06263856  0.57981768  0.33624883     0.08700
H1563       H  0.08152309  0.61444957  0.37523508     0.08700
H1564       H  0.09696357  0.62094249  0.32249434     0.05500
C1565       C  0.04023908  0.33435533  0.63657818    -0.20300
C1566       C  0.00626610  0.36116496  0.63901184    -0.06900
C1567       C  0.97852360  0.35672988  0.67255709     0.14000
C1568       C  0.98521388  0.32544711  0.70215857    -0.20400
C1569       C  0.01939312  0.29864843  0.69966948    -0.06900
C1570       C  0.04797892  0.30447560  0.66696498     0.14000
C1571       C  0.08852812  0.28183563  0.66452791    -0.23700
H1572       H  0.06213259  0.33794884  0.61154617     0.15200
H1573       H  0.96337715  0.32154730  0.72715364     0.15300
C1574       C  0.94074042  0.38359107  0.67611718    -0.23700
H1575       H  0.11409382  0.30419423  0.66009689     0.05500
H1576       H  0.08822302  0.26033299  0.63814352     0.08700
H1577       H  0.09564151  0.26481391  0.69300545     0.08700
H1578       H  0.92174358  0.38034755  0.64805085     0.08700
H1579       H  0.94990434  0.41621118  0.67980811     0.08700
H1580       H  0.92130661  0.37495936  0.70296466     0.05500
C1581       C  0.02293988  0.63761316  0.66261025    -0.20300
C1582       C  0.99044476  0.63671538  0.63427575    -0.06900
C1583       C  0.95924322  0.66716636  0.63683879     0.14000
C1584       C  0.96130980  0.69747255  0.66764953    -0.20400
C1585       C  0.99380689  0.69835139  0.69617044    -0.06900
C1586       C  0.02557095  0.66838818  0.69277904     0.14000
C1587       C  0.06396247  0.66925244  0.71861942    -0.23700
H1588       H  0.04736001  0.61483259  0.66029691     0.15200
H1589       H  0.93685925  0.72012435  0.67022915     0.15300
C1590       C  0.92264400  0.66648531  0.60851403    -0.23700
H1591       H  0.09164493  0.66982515  0.69833478     0.05500
H1592       H  0.06523318  0.64125847  0.73815543     0.08700
H1593       H  0.06569466  0.69685791  0.73826068     0.08700
H1594       H  0.90631694  0.63676327  0.61219988     0.08700
H1595       H  0.93294036  0.67012825  0.57619183     0.08700
H1596       H  0.90039206  0.69159047  0.61546621     0.05500
C1597       C  0.00099028  0.33394902  0.20553240    -0.20300
C1598       C  0.04035517  0.31569354  0.20614308    -0.06900
C1599       C  0.07016934  0.32732232  0.17633979     0.14000
C1600       C  0.05890733  0.35421095  0.14486761    -0.20400
C1601       C  0.01883578  0.37006173  0.14256677    -0.06900
C1602       C  0.98980513  0.36104207  0.17377457     0.14000
C1603       C  0.94639637  0.37774326  0.17190639    -0.23700
H1604       H  0.97799899  0.32452635  0.22795261     0.15200
H1605       H  0.08156005  0.36262162  0.12166367     0.15300
C1606       C  0.11394739  0.31123707  0.17614768    -0.23700
H1607       H  0.92718026  0.36665382  0.19799564     0.05500
H1608       H  0.93165445  0.36756432  0.14297817     0.08700
H1609       H  0.94688602  0.41183870  0.17285108     0.08700
H1610       H  0.11981880  0.29409779  0.14729304     0.08700
H1611       H  0.12073097  0.29052646  0.20226343     0.08700
H1612       H  0.13580002  0.33746275  0.17784213     0.05500
C1613       C  0.99294419  0.17889020  0.30450634    -0.20300
C1614       C  0.02645956  0.20543281  0.31107432    -0.06900
C1615       C  0.05039914  0.20130534  0.34681898     0.14000
C1616       C  0.04115237  0.16933940  0.37431353    -0.20400
C1617       C  0.00906443  0.14126440  0.36640460    -0.06900
C1618       C  0.98372340  0.14695314  0.33179214     0.14000
C1619       C  0.94660739  0.12051938  0.32281966    -0.23700
H1620       H  0.97469829  0.18220362  0.27684329     0.15200
H1621       H  0.06003818  0.16527818  0.40144341     0.15300
C1622       C  0.08676018  0.22897143  0.35500632    -0.23700
H1623       H  0.95173262  0.10363289  0.29367853     0.05500
H1624       H  0.91885580  0.14037564  0.31949803     0.08700
H1625       H  0.93969463  0.09795626  0.34739561     0.08700
H1626       H  0.07599147  0.26102908  0.35927654     0.08700
H1627       H  0.10893539  0.22774820  0.32893789     0.08700
H1628       H  0.10347857  0.21969557  0.38325966     0.05500
C1629       C  0.04877858  0.36454529  0.33800735    -0.20300
C1630       C  0.01454340  0.36064069  0.36418573    -0.06900
C1631       C  0.98765139  0.32685631  0.35919912     0.14000
C1632       C  0.99526452  0.29827192  0.32758513    -0.20400
C1633       C  0.02999515  0.30182475  0.30165896    -0.06900
C1634       C  0.05769046  0.33494606  0.30799019     0.14000
C1635       C  0.09828610  0.33871945  0.28562111    -0.23700
H1636       H  0.06991748  0.38996517  0.34233065     0.15200
H1637       H  0.97403021  0.27301717  0.32304331     0.15300
C1638       C  0.95015861  0.32185343  0.38621522    -0.23700
H1639       H  0.12343637  0.34453420  0.30794240     0.05500
H1640       H  0.09674855  0.36469409  0.26352534     0.08700
H1641       H  0.10693754  0.31023733  0.26936326     0.08700
H1642       H  0.93085772  0.34992587  0.38398400     0.08700
H1643       H  0.95967288  0.31716610  0.41856101     0.08700
H1644       H  0.93111075  0.29509339  0.37697793     0.05500
loop_ 
_geom_bond_atom_site_label_1 
_geom_bond_atom_site_label_2 
_geom_bond_distance 
_geom_bond_site_symmetry_2 
_ccdc_geom_bond_type 
N1            C5   1.362       .  A
N1            C2   1.360       .  A
N1         C1633   1.451       .  S
C2            C3   1.380       .  A
C2         C1614   1.470       .  S
C3            C4   1.363       .  A
C3            H6   1.082       .  S
C4            C5   1.381       .  A
C4            H7   1.082       .  S
C5         C1598   1.475       .  S
O8          Zr44   2.440   1_455  S
O8           C19   1.292       .  A
O9          Zr43   2.468       .  S
O9           C20   1.296   1_655  A
O10         Zr16   2.395       .  S
O10          C21   1.283       .  A
O11         Zr16   2.403   1_655  S
O11          C22   1.284       .  A
O12         Zr46   2.440       .  S
O12          C22   1.293       .  A
O13         Zr45   2.467       .  S
O13          C21   1.298       .  A
O14         Zr16   2.466       .  S
O14          C20   1.296       .  A
O15         Zr16   2.453       .  S
O15          C19   1.294       .  A
Zr16         O17   2.333   1_455  S
Zr16         O18   2.337       .  S
Zr16         O26   2.346   1_455  S
Zr16         O24   2.336       .  S
O17         Zr43   2.334       .  S
O17         Zr46   2.341       .  S
O18         Zr44   2.340   1_455  S
O18         Zr45   2.341       .  S
C19        C1630   1.484       .  S
C20        C1566   1.502       .  S
C21        C1457   1.463       .  S
C22        C1438   1.454       .  S
H23          O24   0.965       .  S
O24         Zr43   2.341   1_455  S
O24         Zr45   2.340       .  S
H25          O26   0.966       .  S
O26         Zr44   2.342       .  S
O26         Zr46   2.350       .  S
O27         Zr43   2.463       .  S
O27          C50   1.295       .  A
O28         Zr44   2.461       .  S
O28          C51   1.296       .  A
O29         Zr45   2.470       .  S
O29          C52   1.300       .  A
O30         Zr46   2.454       .  S
O30          C53   1.295       .  A
O31         Zr46   2.452       .  S
O31          C54   1.296       .  A
O32         Zr45   2.465       .  S
O32          C55   1.298       .  A
O33         Zr47   2.390   1_455  S
O33          C56   1.282       .  A
O34         Zr47   2.379       .  S
O34          C57   1.281       .  A
O35         Zr45   2.452       .  S
O35          C56   1.295       .  A
O36         Zr46   2.456       .  S
O36          C57   1.296       .  A
O37         Zr43   2.385   1_455  S
O37          C52   1.281       .  A
O38         Zr44   2.415   1_455  S
O38          C55   1.287       .  A
O39         Zr44   2.413       .  S
O39          C54   1.286       .  A
O40         Zr43   2.389       .  S
O40          C53   1.282       .  A
O41         Zr47   2.450       .  S
O41          C50   1.293       .  A
O42         Zr47   2.456       .  S
O42          C51   1.294       .  A
Zr43         O49   2.338   1_655  S
Zr43         O61   2.339       .  S
Zr44         O48   2.333       .  S
Zr44         O59   2.331   1_655  S
Zr45         O49   2.346       .  S
Zr45         O59   2.347       .  S
Zr46         O48   2.339       .  S
Zr46         O61   2.347       .  S
Zr47         O48   2.331       .  S
Zr47         O49   2.338   1_655  S
Zr47         O61   2.344       .  S
Zr47         O59   2.334   1_655  S
C50        C1582   1.492       .  S
C51        C1550   1.493       .  S
C52        C1521   1.468       .  S
C53        C1534   1.456       .  S
C54        C1502   1.472       .  S
C55        C1489   1.473       .  S
C56        C1422   1.456       .  S
C57        C1470   1.458       .  S
H58          O59   0.967       .  S
H60          O61   0.966       .  S
N62          C66   1.363       .  A
N62          C63   1.364       .  A
N62        C1585   1.454       .  S
C63          C64   1.380       .  A
C63        C1390   1.472       .  S
C64          C65   1.360       .  A
C64          H67   1.083       .  S
C65          C66   1.380       .  A
C65          H68   1.083       .  S
C66        C1406   1.472       .  S
N69          C73   1.364       .  A
N69          C70   1.366       .  A
N69        C1569   1.460       .  S
C70          C71   1.381       .  A
C70        C1377   1.475       .  S
C71          C72   1.359       .  A
C71          H74   1.083       .  S
C72          C73   1.380       .  A
C72          H75   1.083       .  S
C73        C1358   1.471       .  S
N76          C80   1.367       .  A
N76          C77   1.364       .  A
N76        C1553   1.456       .  S
C77          C78   1.379       .  A
C77        C1329   1.475       .  S
C78          C79   1.360       .  A
C78          H81   1.082       .  S
C79          C80   1.380       .  A
C79          H82   1.082       .  S
C80        C1342   1.476   1_455  S
O83        Zr119   2.467   1_455  S
O83          C94   1.299       .  A
O84        Zr118   2.462   1_455  S
O84          C95   1.297       .  A
O85         Zr91   2.465       .  S
O85          C96   1.296       .  A
O86         Zr91   2.450   1_455  S
O86          C97   1.293       .  A
O87        Zr121   2.453       .  S
O87          C97   1.294       .  A
O88        Zr120   2.462       .  S
O88          C96   1.295       .  A
O89         Zr91   2.402       .  S
O89          C95   1.284   1_655  A
O90         Zr91   2.399   1_455  S
O90          C94   1.285       .  A
Zr91         O92   2.341   1_655  S
Zr91         O93   2.338       .  S
Zr91        O101   2.342   1_655  S
Zr91         O99   2.336       .  S
O92        Zr118   2.338   1_455  S
O92        Zr121   2.342       .  S
O93        Zr119   2.349       .  S
O93        Zr120   2.334       .  S
C94        C1617   1.469       .  S
C95        C1374   1.466       .  S
C96        C1294   1.502       .  S
C97        C1310   1.488       .  S
H98          O99   0.967       .  S
O99        Zr118   2.352       .  S
O99        Zr120   2.349       .  S
H100        O101   0.964       .  S
O101       Zr119   2.344   1_455  S
O101       Zr121   2.339       .  S
O102       Zr118   2.447   1_565  S
O102        C125   1.295       .  A
O103       Zr119   2.467   1_465  S
O103        C126   1.299       .  A
O104       Zr120   2.383   1_565  S
O104        C127   1.281       .  A
O105       Zr121   2.400   1_565  S
O105        C128   1.284       .  A
O106       Zr121   2.400       .  S
O106        C129   1.284       .  A
O107       Zr120   2.406       .  S
O107        C130   1.285       .  A
O108       Zr122   2.442       .  S
O108        C131   1.292       .  A
O109       Zr122   2.460   1_455  S
O109        C132   1.294       .  A
O110       Zr120   2.456   1_565  S
O110        C131   1.295       .  A
O111       Zr121   2.467   1_565  S
O111        C132   1.296       .  A
O112       Zr118   2.466   1_565  S
O112        C127   1.299       .  A
O113       Zr119   2.476       .  S
O113        C130   1.300       .  A
O114       Zr119   2.460   1_455  S
O114        C129   1.297       .  A
O115       Zr118   2.471   1_465  S
O115        C128   1.299       .  A
O116       Zr122   2.415       .  S
O116        C125   1.287       .  A
O117       Zr122   2.402   1_455  S
O117        C126   1.284       .  A
Zr118       O124   2.343   1_545  S
Zr118       O136   2.352   1_645  S
Zr119       O123   2.350   1_645  S
Zr119       O134   2.342   1_545  S
Zr120       O124   2.338   1_545  S
Zr120       O134   2.341   1_545  S
Zr121       O123   2.332   1_545  S
Zr121       O136   2.337   1_545  S
Zr122       O123   2.334   1_655  S
Zr122       O124   2.331       .  S
Zr122       O136   2.333   1_655  S
Zr122       O134   2.352       .  S
C125       C1409   1.464       .  S
C126       C1345   1.472       .  S
C127       C1201   1.466       .  S
C128       C1217   1.470       .  S
C129       C1230   1.460       .  S
C130       C1249   1.482       .  S
C131       C1278   1.483       .  S
C132       C1262   1.502       .  S
H133        O134   0.966       .  S
H135        O136   0.966       .  S
N137        C141   1.358       .  A
N137        C138   1.359       .  A
N137       C1313   1.452       .  S
C138        C139   1.380       .  A
C138       C1454   1.466       .  S
C139        C140   1.359       .  A
C139        H142   1.082       .  S
C140        C141   1.381       .  A
C140        H143   1.083       .  S
C141       C1182   1.461       .  S
N144        C148   1.362       .  A
N144        C145   1.360       .  A
N144       C1297   1.459       .  S
C145        C146   1.378       .  A
C145       C1441   1.461       .  S
C146        C147   1.360       .  A
C146        H149   1.083       .  S
C147        C148   1.381       .  A
C147        H150   1.083       .  S
C148       C1169   1.465       .  S
N151        C155   1.357       .  A
N151        C152   1.354       .  A
N151       C1281   1.449       .  S
C152        C153   1.378       .  A
C152       C1150   1.457       .  S
C153        C154   1.361       .  A
C153        H156   1.082       .  S
C154        C155   1.381       .  A
C154        H157   1.082       .  S
C155       C1473   1.462       .  S
N158        C162   1.360       .  A
N158        C159   1.358       .  A
N158       C1265   1.458       .  S
C159        C160   1.378       .  A
C159       C1425   1.459       .  S
C160        C161   1.359       .  A
C160        H163   1.083       .  S
C161        C162   1.381       .  A
C161        H164   1.083       .  S
C162       C1134   1.461       .  S
N165        C169   1.359       .  A
N165        C166   1.363       .  A
N165       C1118   1.450       .  S
C166        C167   1.381       .  A
C166       C1246   1.479       .  S
C167        C168   1.367       .  A
C167        H170   1.082       .  S
C168        C169   1.378       .  A
C168        H171   1.082       .  S
C169       C1105   1.471       .  S
O172       Zr208   2.426       .  S
O172        C183   1.291       .  A
O173       Zr207   2.439       .  S
O173        C184   1.293       .  A
O174       Zr180   2.476       .  S
O174        C185   1.298       .  A
O175       Zr180   2.478       .  S
O175        C186   1.299       .  A
O176       Zr210   2.458       .  S
O176        C186   1.294       .  A
O177       Zr209   2.462       .  S
O177        C185   1.295       .  A
O178       Zr180   2.390       .  S
O178        C184   1.283       .  A
O179       Zr180   2.399   1_545  S
O179        C183   1.285       .  A
Zr180       O181   2.339       .  S
Zr180       O182   2.339   1_565  S
Zr180       O190   2.336   1_565  S
Zr180       O188   2.343       .  S
O181       Zr207   2.348       .  S
O181       Zr210   2.336       .  S
O182       Zr208   2.337       .  S
O182       Zr209   2.335   1_545  S
C183       C1185   1.455       .  S
C184       C1137   1.448       .  S
C185       C1054   1.496   1_565  S
C186       C1086   1.499       .  S
H187        O188   0.963       .  S
O188       Zr207   2.342       .  S
O188       Zr209   2.332       .  S
H189        O190   0.965       .  S
O190       Zr208   2.351       .  S
O190       Zr210   2.340   1_545  S
O191       Zr207   2.444       .  S
O191        C214   1.294       .  A
O192       Zr208   2.442       .  S
O192        C215   1.293       .  A
O193       Zr209   2.407       .  S
O193        C216   1.285       .  A
O194       Zr210   2.402       .  S
O194        C217   1.285       .  A
O195       Zr210   2.401   1_545  S
O195        C218   1.284       .  A
O196       Zr209   2.390   1_545  S
O196        C219   1.283       .  A
O197       Zr211   2.455   1_545  S
O197        C220   1.294       .  A
O198       Zr211   2.464       .  S
O198        C221   1.296       .  A
O199       Zr209   2.450   1_545  S
O199        C220   1.294       .  A
O200       Zr210   2.453       .  S
O200        C221   1.294       .  A
O201       Zr207   2.464       .  S
O201        C216   1.298       .  A
O202       Zr208   2.466       .  S
O202        C219   1.297       .  A
O203       Zr208   2.434       .  S
O203        C218   1.293       .  A
O204       Zr207   2.456       .  S
O204        C217   1.295       .  A
O205       Zr211   2.383       .  S
O205        C214   1.280       .  A
O206       Zr211   2.403   1_545  S
O206        C215   1.285       .  A
Zr207       O213   2.343       .  S
Zr207       O225   2.342       .  S
Zr208       O212   2.340       .  S
Zr208       O223   2.327       .  S
Zr209       O213   2.337       .  S
Zr209       O223   2.339   1_565  S
Zr210       O212   2.340   1_565  S
Zr210       O225   2.335       .  S
Zr211       O212   2.329   1_565  S
Zr211       O213   2.347       .  S
Zr211       O225   2.336       .  S
Zr211       O223   2.333   1_565  S
C214       C1153   1.446       .  S
C215       C1166   1.460       .  S
C216       C1006   1.479       .  S
C217       C1038   1.461       .  S
C218       C1022   1.461       .  S
C219        C990   1.474       .  S
C220       C1121   1.486       .  S
C221       C1070   1.495       .  S
H222        O223   0.966       .  S
H224        O225   0.964       .  S
N226        C230   1.360       .  A
N226        C227   1.363       .  A
N226       C1089   1.454       .  S
C227        C228   1.383       .  A
C227        C974   1.475       .  S
C228        C229   1.364       .  A
C228        H231   1.082       .  S
C229        C230   1.380       .  A
C229        H232   1.083       .  S
C230       C1214   1.470       .  S
N233        C237   1.365       .  A
N233        C234   1.361       .  A
N233       C1073   1.461       .  S
C234        C235   1.377       .  A
C234       C1198   1.464       .  S
C235        C236   1.359       .  A
C235        H238   1.083       .  S
C236        C237   1.383       .  A
C236        H239   1.082       .  S
C237        C958   1.473       .  S
N240        C244   1.355       .  A
N240        C241   1.358       .  A
N240       C1057   1.447       .  S
C241        C242   1.381       .  A
C241        C942   1.468       .  S
C242        C243   1.368       .  A
C242        H245   1.082       .  S
C243        C244   1.379       .  A
C243        H246   1.082       .  S
C244       C1233   1.465       .  S
O247       Zr283   2.470   1_544  S
O247        C258   1.298       .  A
O248       Zr282   2.459   1_554  S
O248        C259   1.297       .  A
O249       Zr255   2.458   1_545  S
O249        C260   1.294       .  A
O250       Zr255   2.448       .  S
O250        C261   1.293       .  A
O251       Zr285   2.449   1_554  S
O251        C261   1.293       .  A
O252       Zr284   2.473   1_554  S
O252        C260   1.298       .  A
O253       Zr255   2.399       .  S
O253        C259   1.284       .  A
O254       Zr255   2.405   1_545  S
O254        C258   1.284       .  A
Zr255       O256   2.340       .  S
Zr255       O257   2.328   1_565  S
Zr255       O265   2.343       .  S
Zr255       O263   2.343   1_565  S
O256       Zr282   2.340   1_554  S
O256       Zr285   2.332   1_554  S
O257       Zr283   2.339   1_544  S
O257       Zr284   2.332   1_554  S
C258       C1102   1.470       .  S
C259        C945   1.465       .  S
C260        C926   1.501       .  S
C261        C910   1.485       .  S
H262        O263   0.966       .  S
O263       Zr282   2.353   1_544  S
O263       Zr284   2.341   1_554  S
H264        O265   0.966       .  S
O265       Zr283   2.346   1_554  S
O265       Zr285   2.351   1_554  S
O266       Zr282   2.465       .  S
O266        C289   1.298       .  A
O267       Zr283   2.457       .  S
O267        C290   1.296       .  A
O268       Zr284   2.398       .  S
O268        C291   1.284       .  A
O269       Zr285   2.387       .  S
O269        C292   1.280       .  A
O270       Zr285   2.379       .  S
O270        C293   1.281       .  A
O271       Zr284   2.402       .  S
O271        C294   1.285       .  A
O272       Zr286   2.441   1_545  S
O272        C295   1.291       .  A
O273       Zr286   2.452       .  S
O273        C296   1.293       .  A
O274       Zr284   2.466       .  S
O274        C295   1.296       .  A
O275       Zr285   2.476       .  S
O275        C296   1.298       .  A
O276       Zr282   2.458   1_545  S
O276        C291   1.296       .  A
O277       Zr283   2.460   1_545  S
O277        C294   1.297       .  A
O278       Zr283   2.472       .  S
O278        C293   1.299       .  A
O279       Zr282   2.465       .  S
O279        C292   1.299       .  A
O280       Zr286   2.406       .  S
O280        C289   1.285       .  A
O281       Zr286   2.397       .  S
O281        C290   1.284       .  A
Zr282       O288   2.352   1_565  S
Zr282       O300   2.341       .  S
Zr283       O287   2.344       .  S
Zr283       O298   2.354   1_565  S
Zr284       O288   2.345       .  S
Zr284       O298   2.343       .  S
Zr285       O287   2.328       .  S
Zr285       O300   2.325       .  S
Zr286       O287   2.335       .  S
Zr286       O288   2.338   1_565  S
Zr286       O300   2.335       .  S
Zr286       O298   2.343   1_565  S
C289        C977   1.470       .  S
C290        C961   1.460       .  S
C291        C862   1.457       .  S
C292        C830   1.489       .  S
C293        C846   1.464       .  S
C294        C814   1.464       .  S
C295        C878   1.488       .  S
C296        C894   1.498       .  S
H297        O298   0.965       .  S
H299        O300   0.966       .  S
N301        C305   1.360       .  A
N301        C302   1.367       .  A
N301        C929   1.459       .  S
C302        C303   1.383       .  A
C302        C993   1.474       .  S
C303        C304   1.360       .  A
C303        H306   1.083       .  S
C304        C305   1.377       .  A
C304        H307   1.083       .  S
C305        C801   1.464       .  S
N308        C312   1.361       .  A
N308        C309   1.364       .  A
N308        C913   1.450       .  S
C309        C310   1.380       .  A
C309        C785   1.478       .  S
C310        C311   1.364       .  A
C310        H313   1.082       .  S
C311        C312   1.381       .  A
C311        H314   1.082       .  S
C312       C1009   1.476       .  S
N315        C319   1.366       .  A
N315        C316   1.363       .  A
N315        C897   1.459       .  S
C316        C317   1.378       .  A
C316        C766   1.470       .  S
C317        C318   1.358       .  A
C317        H320   1.083       .  S
C318        C319   1.382       .  A
C318        H321   1.083       .  S
C319       C1041   1.477       .  S
N322        C326   1.357       .  A
N322        C323   1.358       .  A
N322        C881   1.452       .  S
C323        C324   1.382       .  A
C323       C1025   1.464       .  S
C324        C325   1.361       .  A
C324        H327   1.083       .  S
C325        C326   1.379       .  A
C325        H328   1.082       .  S
C326        C750   1.464       .  S
O329       Zr365   2.461       .  S
O329        C340   1.297       .  A
O330       Zr364   2.486   1_554  S
O330        C341   1.302       .  A
O331       Zr337   2.458       .  S
O331        C342   1.295       .  A
O332       Zr337   2.467   1_655  S
O332        C343   1.296       .  A
O333       Zr367   2.460   1_554  S
O333        C343   1.295       .  A
O334       Zr366   2.454   1_554  S
O334        C342   1.294       .  A
O335       Zr337   2.393   1_655  S
O335        C341   1.282   1_655  A
O336       Zr337   2.402       .  S
O336        C340   1.284       .  A
Zr337       O338   2.339   1_455  S
Zr337       O339   2.337       .  S
Zr337       O347   2.340   1_455  S
Zr337       O345   2.348       .  S
O338       Zr364   2.353   1_654  S
O338       Zr367   2.347   1_554  S
O339       Zr365   2.336       .  S
O339       Zr366   2.334   1_554  S
C340       C1601   1.465       .  S
C341       C1326   1.473       .  S
C342        C718   1.491       .  S
C343        C734   1.495       .  S
H344        O345   0.966       .  S
O345       Zr364   2.337   1_554  S
O345       Zr366   2.339   1_554  S
H346        O347   0.968       .  S
O347       Zr365   2.353   1_655  S
O347       Zr367   2.348   1_554  S
O348       Zr364   2.454       .  S
O348        C371   1.296       .  A
O349       Zr365   2.470   1_556  S
O349        C372   1.299       .  A
O350       Zr366   2.386       .  S
O350        C373   1.281       .  A
O351       Zr367   2.412       .  S
O351        C374   1.287       .  A
O352       Zr367   2.407       .  S
O352        C375   1.285   1_556  A
O353       Zr366   2.377   1_554  S
O353        C376   1.278       .  A
O354       Zr368   2.447       .  S
O354        C377   1.292       .  A
O355       Zr368   2.437   1_655  S
O355        C378   1.291       .  A
O356       Zr366   2.478       .  S
O356        C377   1.298       .  A
O357       Zr367   2.472       .  S
O357        C378   1.297       .  A
O358       Zr364   2.472       .  S
O358        C373   1.299       .  A
O359       Zr365   2.471       .  S
O359        C376   1.300       .  A
O360       Zr365   2.458   1_655  S
O360        C375   1.297       .  A
O361       Zr364   2.452   1_655  S
O361        C374   1.295       .  A
O362       Zr368   2.411   1_655  S
O362        C371   1.286   1_655  A
O363       Zr368   2.401       .  S
O363        C372   1.285       .  A
Zr364       O370   2.347       .  S
Zr364       O382   2.357   1_455  S
Zr365       O369   2.348   1_454  S
Zr365       O380   2.343   1_554  S
Zr366       O370   2.330       .  S
Zr366       O380   2.335       .  S
Zr367       O369   2.338       .  S
Zr367       O382   2.338       .  S
Zr368       O369   2.335   1_455  S
Zr368       O370   2.338       .  S
Zr368       O382   2.336   1_455  S
Zr368       O380   2.338       .  S
C371       C1393   1.467       .  S
C372       C1361   1.472       .  S
C373        C654   1.480       .  S
C374        C622   1.461       .  S
C375        C638   1.466       .  S
C376        C673   1.474       .  S
C377        C702   1.492       .  S
C378        C689   1.492       .  S
H379        O380   0.965       .  S
H381        O382   0.966       .  S
N383        C387   1.356       .  A
N383        C384   1.362       .  A
N383        C737   1.452       .  S
C384        C385   1.382       .  A
C384       C1505   1.472       .  S
C385        C386   1.363       .  A
C385        H388   1.082       .  S
C386        C387   1.379       .  A
C386        H389   1.082       .  S
C387        C609   1.465       .  S
N390        C394   1.366       .  A
N390        C391   1.358       .  A
N390        C721   1.451       .  S
C391        C392   1.379       .  A
C391        C590   1.467       .  S
C392        C393   1.361       .  A
C392        H395   1.083       .  S
C393        C394   1.382       .  A
C393        H396   1.082       .  S
C394       C1486   1.479       .  S
N397        C401   1.359       .  A
N397        C398   1.361       .  A
N397        C705   1.452       .  S
C398        C399   1.382       .  A
C398        C577   1.474       .  S
C399        C400   1.363       .  A
C399        H402   1.082       .  S
C400        C401   1.380       .  A
C400        H403   1.082       .  S
C401       C1518   1.469       .  S
N404        C408   1.360       .  A
N404        C405   1.364       .  A
N404        C686   1.459       .  S
C405        C406   1.382       .  A
C405       C1537   1.471       .  S
C406        C407   1.360       .  A
C406        H409   1.082       .  S
C407        C408   1.377       .  A
C407        H410   1.082       .  S
C408        C558   1.465       .  S
N411        C415   1.355       .  A
N411        C412   1.359       .  A
N411        C542   1.455       .  S
C412        C413   1.384       .  A
C412        C670   1.471       .  S
C413        C414   1.364       .  A
C413        H416   1.082       .  S
C414        C415   1.378       .  A
C414        H417   1.082       .  S
C415        C865   1.459       .  S
O418       Zr454   2.453       .  S
O418        C429   1.295       .  A
O419       Zr453   2.463       .  S
O419        C430   1.297       .  A
O420       Zr426   2.466       .  S
O420        C431   1.296       .  A
O421       Zr426   2.470       .  S
O421        C432   1.297       .  A
O422       Zr456   2.449       .  S
O422        C432   1.293       .  A
O423       Zr455   2.465       .  S
O423        C431   1.296       .  A
O424       Zr426   2.395       .  S
O424        C430   1.283       .  A
O425       Zr426   2.404   1_554  S
O425        C429   1.284       .  A
Zr426       O427   2.338       .  S
Zr426       O428   2.338   1_556  S
Zr426       O436   2.340   1_556  S
Zr426       O434   2.340       .  S
O427       Zr453   2.345       .  S
O427       Zr456   2.338       .  S
O428       Zr454   2.350       .  S
O428       Zr455   2.342   1_554  S
C429        C798   1.459       .  S
C430        C753   1.459       .  S
C431        C545   1.496       .  S
C432        C494   1.493       .  S
H433        O434   0.966       .  S
O434       Zr453   2.346       .  S
O434       Zr455   2.337       .  S
H435        O436   0.965       .  S
O436       Zr454   2.348       .  S
O436       Zr456   2.344   1_554  S
O437       Zr453   2.475       .  S
O437        C460   1.300       .  A
O438       Zr454   2.469       .  S
O438        C461   1.298       .  A
O439       Zr455   2.407       .  S
O439        C462   1.285       .  A
O440       Zr456   2.405       .  S
O440        C463   1.285       .  A
O441       Zr456   2.404   1_554  S
O441        C464   1.285       .  A
O442       Zr455   2.402   1_554  S
O442        C465   1.285       .  A
O443       Zr457   2.444       .  S
O443        C466   1.292       .  A
O444       Zr457   2.455       .  S
O444        C467   1.293       .  A
O445       Zr455   2.464       .  S
O445        C466   1.296       .  A
O446       Zr456   2.459       .  S
O446        C467   1.295       .  A
O447       Zr453   2.462       .  S
O447        C462   1.297       .  A
O448       Zr454   2.447       .  S
O448        C465   1.295       .  A
O449       Zr454   2.466       .  S
O449        C464   1.297       .  A
O450       Zr453   2.460       .  S
O450        C463   1.297       .  A
O451       Zr457   2.387       .  S
O451        C460   1.283       .  A
O452       Zr457   2.408   1_554  S
O452        C461   1.285       .  A
Zr453       O459   2.345       .  S
Zr453       O471   2.352       .  S
Zr454       O458   2.346       .  S
Zr454       O469   2.345       .  S
Zr455       O459   2.336       .  S
Zr455       O469   2.339   1_556  S
Zr456       O458   2.341   1_556  S
Zr456       O471   2.338       .  S
Zr457       O458   2.335   1_556  S
Zr457       O459   2.344       .  S
Zr457       O471   2.343       .  S
Zr457       O469   2.331   1_556  S
C460        C769   1.471       .  S
C461        C782   1.470       .  S
C462        C574   1.467       .  S
C463        C561   1.469       .  S
C464        C606   1.465       .  S
C465        C593   1.459       .  S
C466        C510   1.490       .  S
C467        C526   1.488       .  S
H468        O469   0.965       .  S
H470        O471   0.966       .  S
N472        C476   1.358       .  A
N472        C473   1.356       .  A
N472        C529   1.448       .  S
C473        C474   1.378       .  A
C473        C849   1.462       .  S
C474        C475   1.363       .  A
C474        H477   1.083       .  S
C475        C476   1.382       .  A
C475        H478   1.082       .  S
C476        C625   1.468       .  S
N479        C483   1.358       .  A
N479        C480   1.364       .  A
N479        C513   1.455       .  S
C480        C481   1.385       .  A
C480        C833   1.490       .  S
C481        C482   1.362       .  A
C481        H484   1.082       .  S
C482        C483   1.377       .  A
C482        H485   1.082       .  S
C483        C657   1.468       .  S
N486        C490   1.361       .  A
N486        C487   1.361   1_556  A
N486        C497   1.456       .  S
C487        C488   1.381       .  A
C487        C641   1.468       .  S
C488        C489   1.362   1_554  A
C488        H491   1.082       .  S
C489        C490   1.380       .  A
C489        H492   1.083       .  S
C490        C817   1.467       .  S
C493        C494   1.402       .  A
C493        C498   1.409       .  A
C493        H500   1.082       .  S
C494        C495   1.415   1_556  A
C495        C496   1.412       .  A
C495        C502   1.503       .  S
C496        C497   1.406   1_554  A
C496        H501   1.083       .  S
C497        C498   1.419       .  A
C498        C499   1.503       .  S
C499        H503   1.111       .  S
C499        H504   1.110       .  S
C499        H505   1.104       .  S
C502        H506   1.108       .  S
C502        H507   1.110       .  S
C502        H508   1.109       .  S
C509        C510   1.406   1_554  A
C509        C514   1.414       .  A
C509        H516   1.084       .  S
C510        C511   1.414       .  A
C511        C512   1.407       .  A
C511        C518   1.507       .  S
C512        C513   1.408       .  A
C512        H517   1.084       .  S
C513        C514   1.416   1_556  A
C514        C515   1.502       .  S
C515        H519   1.110       .  S
C515        H520   1.110       .  S
C515        H521   1.107       .  S
C518        H522   1.107       .  S
C518        H523   1.109       .  S
C518        H524   1.111       .  S
C525        C526   1.407   1_554  A
C525        C530   1.414       .  A
C525        H532   1.084       .  S
C526        C527   1.416       .  A
C527        C528   1.406       .  A
C527        C534   1.506       .  S
C528        C529   1.401       .  A
C528        H533   1.084       .  S
C529        C530   1.415   1_556  A
C530        C531   1.504       .  S
C531        H535   1.111       .  S
C531        H536   1.110       .  S
C531        H537   1.109       .  S
C534        H538   1.107       .  S
C534        H539   1.110       .  S
C534        H540   1.111       .  S
C541        C542   1.405   1_554  A
C541        C546   1.415       .  A
C541        H548   1.083       .  S
C542        C543   1.421       .  A
C543        C544   1.410       .  A
C543        C550   1.507       .  S
C544        C545   1.403       .  A
C544        H549   1.085       .  S
C545        C546   1.415   1_556  A
C546        C547   1.503       .  S
C547        H551   1.110       .  S
C547        H552   1.110       .  S
C547        H553   1.107       .  S
C550        H554   1.106       .  S
C550        H555   1.110       .  S
C550        H556   1.110       .  S
C557        C558   1.405       .  A
C557        C562   1.402       .  A
C557        H564   1.085       .  S
C558        C559   1.406       .  A
C559        C560   1.400       .  A
C559        C566   1.507       .  S
C560        C561   1.406       .  A
C560        H565   1.085       .  S
C561        C562   1.409       .  A
C562        C563   1.506       .  S
C563        H567   1.111       .  S
C563        H568   1.107       .  S
C563        H569   1.110       .  S
C566        H570   1.110       .  S
C566        H571   1.110       .  S
C566        H572   1.111       .  S
C573        C574   1.399       .  A
C573        C578   1.399       .  A
C573        H580   1.085       .  S
C574        C575   1.413       .  A
C575        C576   1.401       .  A
C575        C582   1.506       .  S
C576        C577   1.401       .  A
C576        H581   1.083       .  S
C577        C578   1.416       .  A
C578        C579   1.507       .  S
C579        H583   1.111       .  S
C579        H584   1.110       .  S
C579        H585   1.109       .  S
C582        H586   1.107       .  S
C582        H587   1.109       .  S
C582        H588   1.111       .  S
C589        C590   1.401       .  A
C589        C594   1.393       .  A
C589        H596   1.085       .  S
C590        C591   1.410       .  A
C591        C592   1.401       .  A
C591        C598   1.505       .  S
C592        C593   1.404       .  A
C592        H597   1.085       .  S
C593        C594   1.409       .  A
C594        C595   1.504       .  S
C595        H599   1.111       .  S
C595        H600   1.105       .  S
C595        H601   1.110       .  S
C598        H602   1.110       .  S
C598        H603   1.109       .  S
C598        H604   1.111       .  S
C605        C606   1.399       .  A
C605        C610   1.398       .  A
C605        H612   1.082       .  S
C606        C607   1.411       .  A
C607        C608   1.403       .  A
C607        C614   1.507       .  S
C608        C609   1.402       .  A
C608        H613   1.084       .  S
C609        C610   1.411       .  A
C610        C611   1.508       .  S
C611        H615   1.110       .  S
C611        H616   1.109       .  S
C611        H617   1.109       .  S
C614        H618   1.111       .  S
C614        H619   1.110       .  S
C614        H620   1.111       .  S
C621        C622   1.399       .  A
C621        C626   1.398       .  A
C621        H628   1.085       .  S
C622        C623   1.410   1_556  A
C623        C624   1.403       .  A
C623        C630   1.507       .  S
C624        C625   1.402   1_554  A
C624        H629   1.084       .  S
C625        C626   1.412       .  A
C626        C627   1.508       .  S
C627        H631   1.111       .  S
C627        H632   1.108       .  S
C627        H633   1.111       .  S
C630        H634   1.109       .  S
C630        H635   1.110       .  S
C630        H636   1.111       .  S
C637        C638   1.398       .  A
C637        C642   1.398       .  A
C637        H644   1.085       .  S
C638        C639   1.415   1_554  A
C639        C640   1.401       .  A
C639        C646   1.508       .  S
C640        C641   1.399   1_556  A
C640        H645   1.085       .  S
C641        C642   1.416       .  A
C642        C643   1.508       .  S
C643        H647   1.111       .  S
C643        H648   1.111       .  S
C643        H649   1.109       .  S
C646        H650   1.107       .  S
C646        H651   1.109       .  S
C646        H652   1.111       .  S
C653        C654   1.400       .  A
C653        C658   1.402       .  A
C653        H660   1.084   1_556  S
C654        C655   1.426       .  A
C655        C656   1.399       .  A
C655        C662   1.509       .  S
C656        C657   1.391       .  A
C656        H661   1.085       .  S
C657        C658   1.416       .  A
C658        C659   1.508   1_556  S
C659        H663   1.111       .  S
C659        H664   1.109   1_554  S
C659        H665   1.109       .  S
C662        H666   1.108       .  S
C662        H667   1.109       .  S
C662        H668   1.111       .  S
C669        C670   1.396       .  A
C669        C674   1.400       .  A
C669        H676   1.083       .  S
C670        C671   1.418   1_556  A
C671        C672   1.394       .  A
C671        C678   1.509       .  S
C672        C673   1.397       .  A
C672        H677   1.085       .  S
C673        C674   1.425   1_554  A
C674        C675   1.510       .  S
C675        H679   1.111       .  S
C675        H680   1.110       .  S
C675        H681   1.105       .  S
C678        H682   1.108       .  S
C678        H683   1.111       .  S
C678        H684   1.110       .  S
C685        C686   1.411       .  A
C685        C690   1.417       .  A
C685        H692   1.083       .  S
C686        C687   1.421       .  A
C687        C688   1.406       .  A
C687        C694   1.506       .  S
C688        C689   1.401       .  A
C688        H693   1.085       .  S
C689        C690   1.414       .  A
C690        C691   1.507       .  S
C691        H695   1.111       .  S
C691        H696   1.111       .  S
C691        H697   1.110       .  S
C694        H698   1.110       .  S
C694        H699   1.111       .  S
C694        H700   1.104       .  S
C701        C702   1.407       .  A
C701        C706   1.412       .  A
C701        H708   1.084       .  S
C702        C703   1.418       .  A
C703        C704   1.407       .  A
C703        C710   1.506       .  S
C704        C705   1.403       .  A
C704        H709   1.084       .  S
C705        C706   1.416       .  A
C706        C707   1.503       .  S
C707        H711   1.111       .  S
C707        H712   1.110       .  S
C707        H713   1.106       .  S
C710        H714   1.108       .  S
C710        H715   1.110       .  S
C710        H716   1.108       .  S
C717        C718   1.406       .  A
C717        C722   1.410       .  A
C717        H724   1.085       .  S
C718        C719   1.415       .  A
C719        C720   1.409       .  A
C719        C726   1.508       .  S
C720        C721   1.407       .  A
C720        H725   1.083       .  S
C721        C722   1.416       .  A
C722        C723   1.506       .  S
C723        H727   1.110       .  S
C723        H728   1.111       .  S
C723        H729   1.107       .  S
C726        H730   1.110       .  S
C726        H731   1.110       .  S
C726        H732   1.111       .  S
C733        C734   1.405       .  A
C733        C738   1.411       .  A
C733        H740   1.080       .  S
C734        C735   1.416       .  A
C735        C736   1.411       .  A
C735        C742   1.506       .  S
C736        C737   1.406       .  A
C736        H741   1.083       .  S
C737        C738   1.414       .  A
C738        C739   1.503       .  S
C739        H743   1.110       .  S
C739        H744   1.106       .  S
C739        H745   1.111       .  S
C742        H746   1.108       .  S
C742        H747   1.110       .  S
C742        H748   1.111       .  S
C749        C750   1.401       .  A
C749        C754   1.396       .  A
C749        H756   1.085       .  S
C750        C751   1.412       .  A
C751        C752   1.402       .  A
C751        C758   1.508       .  S
C752        C753   1.402       .  A
C752        H757   1.084       .  S
C753        C754   1.407       .  A
C754        C755   1.508       .  S
C755        H759   1.111       .  S
C755        H760   1.108       .  S
C755        H761   1.110       .  S
C758        H762   1.107       .  S
C758        H763   1.111       .  S
C758        H764   1.111       .  S
C765        C766   1.408       .  A
C765        C770   1.402       .  A
C765        H772   1.085       .  S
C766        C767   1.405       .  A
C767        C768   1.400       .  A
C767        C774   1.504       .  S
C768        C769   1.407       .  A
C768        H773   1.085       .  S
C769        C770   1.411       .  A
C770        C771   1.508       .  S
C771        H775   1.110       .  S
C771        H776   1.106       .  S
C771        H777   1.110       .  S
C774        H778   1.108       .  S
C774        H779   1.110       .  S
C774        H780   1.109       .  S
C781        C782   1.402       .  A
C781        C786   1.405       .  A
C781        H788   1.084       .  S
C782        C783   1.410       .  A
C783        C784   1.402       .  A
C783        C790   1.508       .  S
C784        C785   1.406       .  A
C784        H789   1.084       .  S
C785        C786   1.414       .  A
C786        C787   1.506       .  S
C787        H791   1.111       .  S
C787        H792   1.110       .  S
C787        H793   1.107       .  S
C790        H794   1.110       .  S
C790        H795   1.111       .  S
C790        H796   1.111       .  S
C797        C798   1.396       .  A
C797        C802   1.394       .  A
C797        H804   1.078       .  S
C798        C799   1.408       .  A
C799        C800   1.403       .  A
C799        C806   1.505       .  S
C800        C801   1.403       .  A
C800        H805   1.084       .  S
C801        C802   1.411       .  A
C802        C803   1.508       .  S
C803        H807   1.110       .  S
C803        H808   1.109       .  S
C803        H809   1.111       .  S
C806        H810   1.110       .  S
C806        H811   1.111       .  S
C806        H812   1.111       .  S
C813        C814   1.396       .  A
C813        C818   1.396       .  A
C813        H820   1.085       .  S
C814        C815   1.415   1_556  A
C815        C816   1.403       .  A
C815        C822   1.508       .  S
C816        C817   1.400   1_554  A
C816        H821   1.084       .  S
C817        C818   1.416       .  A
C818        C819   1.508       .  S
C819        H823   1.111       .  S
C819        H824   1.110       .  S
C819        H825   1.107       .  S
C822        H826   1.110       .  S
C822        H827   1.109       .  S
C822        H828   1.111       .  S
C829        C830   1.400       .  A
C829        C834   1.395       .  A
C829        H836   1.084       .  S
C830        C831   1.428       .  A
C831        C832   1.404       .  A
C831        C838   1.512   1_556  S
C832        C833   1.399       .  A
C832        H837   1.077       .  S
C833        C834   1.422       .  A
C834        C835   1.510       .  S
C835        H839   1.111   1_556  S
C835        H840   1.107       .  S
C835        H841   1.111       .  S
C838        H842   1.110       .  S
C838        H843   1.108   1_554  S
C838        H844   1.111       .  S
C845        C846   1.404       .  A
C845        C850   1.398       .  A
C845        H852   1.085       .  S
C846        C847   1.407   1_556  A
C847        C848   1.399       .  A
C847        C854   1.502       .  S
C848        C849   1.403   1_554  A
C848        H853   1.084       .  S
C849        C850   1.408       .  A
C850        C851   1.505       .  S
C851        H855   1.108       .  S
C851        H856   1.110       .  S
C851        H857   1.111       .  S
C854        H858   1.109       .  S
C854        H859   1.110       .  S
C854        H860   1.111       .  S
C861        C862   1.398   1_554  A
C861        C866   1.398       .  A
C861        H868   1.083       .  S
C862        C863   1.409       .  A
C863        C864   1.396       .  A
C863        C870   1.505       .  S
C864        C865   1.398       .  A
C864        H869   1.084       .  S
C865        C866   1.415   1_556  A
C866        C867   1.509       .  S
C867        H871   1.111       .  S
C867        H872   1.110       .  S
C867        H873   1.106       .  S
C870        H874   1.109       .  S
C870        H875   1.110       .  S
C870        H876   1.111       .  S
C877        C878   1.404       .  A
C877        C882   1.408       .  A
C877        H884   1.081       .  S
C878        C879   1.413       .  A
C879        C880   1.408       .  A
C879        C886   1.508       .  S
C880        C881   1.407       .  A
C880        H885   1.083       .  S
C881        C882   1.418       .  A
C882        C883   1.505       .  S
C883        H887   1.111       .  S
C883        H888   1.111       .  S
C883        H889   1.106       .  S
C886        H890   1.110       .  S
C886        H891   1.109       .  S
C886        H892   1.111       .  S
C893        C894   1.403       .  A
C893        C898   1.410       .  A
C893        H900   1.085       .  S
C894        C895   1.417       .  A
C895        C896   1.416       .  A
C895        C902   1.506       .  S
C896        C897   1.409       .  A
C896        H901   1.083       .  S
C897        C898   1.421       .  A
C898        C899   1.505       .  S
C899        H903   1.108       .  S
C899        H904   1.103       .  S
C899        H905   1.110       .  S
C902        H906   1.111       .  S
C902        H907   1.108       .  S
C902        H908   1.111       .  S
C909        C910   1.401       .  A
C909        C914   1.406       .  A
C909        H916   1.085       .  S
C910        C911   1.413       .  A
C911        C912   1.409       .  A
C911        C918   1.503       .  S
C912        C913   1.406       .  A
C912        H917   1.083       .  S
C913        C914   1.419       .  A
C914        C915   1.505       .  S
C915        H919   1.111       .  S
C915        H920   1.105       .  S
C915        H921   1.111       .  S
C918        H922   1.110       .  S
C918        H923   1.110       .  S
C918        H924   1.111       .  S
C925        C926   1.410       .  A
C925        C930   1.418       .  A
C925        H932   1.084       .  S
C926        C927   1.415       .  A
C927        C928   1.408       .  A
C927        C934   1.507       .  S
C928        C929   1.407       .  A
C928        H933   1.082       .  S
C929        C930   1.419       .  A
C930        C931   1.503       .  S
C931        H935   1.109       .  S
C931        H936   1.111       .  S
C931        H937   1.107       .  S
C934        H938   1.110       .  S
C934        H939   1.110       .  S
C934        H940   1.111       .  S
C941        C942   1.406   1_565  A
C941        C946   1.404       .  A
C941        H948   1.084       .  S
C942        C943   1.409       .  A
C943        C944   1.397       .  A
C943        C950   1.505       .  S
C944        C945   1.401   1_545  A
C944        H949   1.085       .  S
C945        C946   1.409       .  A
C946        C947   1.507       .  S
C947        H951   1.111       .  S
C947        H952   1.111       .  S
C947        H953   1.110       .  S
C950        H954   1.105       .  S
C950        H955   1.110       .  S
C950        H956   1.111       .  S
C957        C958   1.403       .  A
C957        C962   1.403   1_565  A
C957        H964   1.084   1_565  S
C958        C959   1.418       .  A
C959        C960   1.395       .  A
C959        C966   1.509       .  S
C960        C961   1.397       .  A
C960        H965   1.086       .  S
C961        C962   1.411   1_565  A
C962        C963   1.507       .  S
C963        H967   1.111       .  S
C963        H968   1.111       .  S
C963        H969   1.110       .  S
C966        H970   1.110       .  S
C966        H971   1.109       .  S
C966        H972   1.109       .  S
C973        C974   1.400       .  A
C973        C978   1.402   1_565  A
C973        H980   1.083   1_565  S
C974        C975   1.417       .  A
C975        C976   1.399       .  A
C975        C982   1.507       .  S
C976        C977   1.399       .  A
C976        H981   1.085       .  S
C977        C978   1.415   1_565  A
C978        C979   1.505       .  S
C979        H983   1.111       .  S
C979        H984   1.109       .  S
C979        H985   1.107       .  S
C982        H986   1.109       .  S
C982        H987   1.110       .  S
C982        H988   1.111       .  S
C989        C990   1.408       .  A
C989        C994   1.399       .  A
C989        H996   1.082       .  S
C990        C991   1.409       .  A
C991        C992   1.401       .  A
C991        C998   1.508       .  S
C992        C993   1.409       .  A
C992        H997   1.085       .  S
C993        C994   1.406       .  A
C994        C995   1.506       .  S
C995        H999   1.110       .  S
C995       H1000   1.106       .  S
C995       H1001   1.110       .  S
C998       H1002   1.109       .  S
C998       H1003   1.109       .  S
C998       H1004   1.111       .  S
C1005      C1006   1.398       .  A
C1005      C1010   1.397       .  A
C1005      H1012   1.080       .  S
C1006      C1007   1.422       .  A
C1007      C1008   1.406       .  A
C1007      C1014   1.507       .  S
C1008      C1009   1.399       .  A
C1008      H1013   1.084       .  S
C1009      C1010   1.414       .  A
C1010      C1011   1.508       .  S
C1011      H1015   1.111       .  S
C1011      H1016   1.109       .  S
C1011      H1017   1.110       .  S
C1014      H1018   1.110       .  S
C1014      H1019   1.108       .  S
C1014      H1020   1.111       .  S
C1021      C1022   1.396       .  A
C1021      C1026   1.389       .  A
C1021      H1028   1.085       .  S
C1022      C1023   1.418       .  A
C1023      C1024   1.401       .  A
C1023      C1030   1.509       .  S
C1024      C1025   1.399       .  A
C1024      H1029   1.084       .  S
C1025      C1026   1.414       .  A
C1026      C1027   1.510       .  S
C1027      H1031   1.110       .  S
C1027      H1032   1.111       .  S
C1027      H1033   1.108       .  S
C1030      H1034   1.110       .  S
C1030      H1035   1.109       .  S
C1030      H1036   1.111       .  S
C1037      C1038   1.401       .  A
C1037      C1042   1.404       .  A
C1037      H1044   1.085       .  S
C1038      C1039   1.406       .  A
C1039      C1040   1.397       .  A
C1039      C1046   1.509       .  S
C1040      C1041   1.407       .  A
C1040      H1045   1.085       .  S
C1041      C1042   1.415       .  A
C1042      C1043   1.506       .  S
C1043      H1047   1.111       .  S
C1043      H1048   1.105       .  S
C1043      H1049   1.110       .  S
C1046      H1050   1.110       .  S
C1046      H1051   1.110       .  S
C1046      H1052   1.111       .  S
C1053      C1054   1.409   1_565  A
C1053      C1058   1.415       .  A
C1053      H1060   1.083       .  S
C1054      C1055   1.413       .  A
C1055      C1056   1.406       .  A
C1055      C1062   1.501       .  S
C1056      C1057   1.401       .  A
C1056      H1061   1.083       .  S
C1057      C1058   1.414   1_545  A
C1058      C1059   1.504       .  S
C1059      H1063   1.111       .  S
C1059      H1064   1.110       .  S
C1059      H1065   1.109       .  S
C1062      H1066   1.106       .  S
C1062      H1067   1.110       .  S
C1062      H1068   1.111       .  S
C1069      C1070   1.402       .  A
C1069      C1074   1.408       .  A
C1069      H1076   1.084       .  S
C1070      C1071   1.415   1_565  A
C1071      C1072   1.416       .  A
C1071      C1078   1.506       .  S
C1072      C1073   1.412   1_545  A
C1072      H1077   1.083       .  S
C1073      C1074   1.421       .  A
C1074      C1075   1.507       .  S
C1075      H1079   1.105       .  S
C1075      H1080   1.110       .  S
C1075      H1081   1.111       .  S
C1078      H1082   1.109       .  S
C1078      H1083   1.110       .  S
C1078      H1084   1.111       .  S
C1085      C1086   1.405       .  A
C1085      C1090   1.414       .  A
C1085      H1092   1.084       .  S
C1086      C1087   1.415   1_565  A
C1087      C1088   1.413       .  A
C1087      C1094   1.502       .  S
C1088      C1089   1.405   1_545  A
C1088      H1093   1.083       .  S
C1089      C1090   1.418       .  A
C1090      C1091   1.506       .  S
C1091      H1095   1.110       .  S
C1091      H1096   1.107       .  S
C1091      H1097   1.110       .  S
C1094      H1098   1.105       .  S
C1094      H1099   1.111       .  S
C1094      H1100   1.111       .  S
C1101      C1102   1.403       .  A
C1101      C1106   1.402       .  A
C1101      H1108   1.085       .  S
C1102      C1103   1.411   1_545  A
C1103      C1104   1.402       .  A
C1103      C1110   1.502       .  S
C1104      C1105   1.401   1_565  A
C1104      H1109   1.085       .  S
C1105      C1106   1.412       .  A
C1106      C1107   1.506       .  S
C1107      H1111   1.108       .  S
C1107      H1112   1.110       .  S
C1107      H1113   1.109       .  S
C1110      H1114   1.110       .  S
C1110      H1115   1.107       .  S
C1110      H1116   1.108       .  S
C1117      C1118   1.407       .  A
C1117      C1122   1.408       .  A
C1117      H1124   1.082       .  S
C1118      C1119   1.414   1_545  A
C1119      C1120   1.408       .  A
C1119      C1126   1.503       .  S
C1120      C1121   1.403   1_565  A
C1120      H1125   1.082       .  S
C1121      C1122   1.415       .  A
C1122      C1123   1.508       .  S
C1123      H1127   1.111       .  S
C1123      H1128   1.110       .  S
C1123      H1129   1.110       .  S
C1126      H1130   1.107       .  S
C1126      H1131   1.111       .  S
C1126      H1132   1.110       .  S
C1133      C1134   1.404       .  A
C1133      C1138   1.394       .  A
C1133      H1140   1.085       .  S
C1134      C1135   1.412       .  A
C1135      C1136   1.397       .  A
C1135      C1142   1.507       .  S
C1136      C1137   1.399       .  A
C1136      H1141   1.085       .  S
C1137      C1138   1.406       .  A
C1138      C1139   1.509       .  S
C1139      H1143   1.111       .  S
C1139      H1144   1.110       .  S
C1139      H1145   1.110       .  S
C1142      H1146   1.110       .  S
C1142      H1147   1.106       .  S
C1142      H1148   1.111       .  S
C1149      C1150   1.399       .  A
C1149      C1154   1.393       .  A
C1149      H1156   1.084       .  S
C1150      C1151   1.413       .  A
C1151      C1152   1.397       .  A
C1151      C1158   1.506       .  S
C1152      C1153   1.397       .  A
C1152      H1157   1.085       .  S
C1153      C1154   1.405       .  A
C1154      C1155   1.505       .  S
C1155      H1159   1.111       .  S
C1155      H1160   1.108       .  S
C1155      H1161   1.106       .  S
C1158      H1162   1.110       .  S
C1158      H1163   1.111       .  S
C1158      H1164   1.107       .  S
C1165      C1166   1.403       .  A
C1165      C1170   1.400       .  A
C1165      H1172   1.085       .  S
C1166      C1167   1.408       .  A
C1167      C1168   1.396       .  A
C1167      C1174   1.508       .  S
C1168      C1169   1.404       .  A
C1168      H1173   1.085       .  S
C1169      C1170   1.410       .  A
C1170      C1171   1.507       .  S
C1171      H1175   1.111       .  S
C1171      H1176   1.107       .  S
C1171      H1177   1.110       .  S
C1174      H1178   1.109       .  S
C1174      H1179   1.110       .  S
C1174      H1180   1.111       .  S
C1181      C1182   1.403       .  A
C1181      C1186   1.390       .  A
C1181      H1188   1.085       .  S
C1182      C1183   1.409       .  A
C1183      C1184   1.396       .  A
C1183      C1190   1.507       .  S
C1184      C1185   1.402       .  A
C1184      H1189   1.078       .  S
C1185      C1186   1.408       .  A
C1186      C1187   1.510       .  S
C1187      H1191   1.111       .  S
C1187      H1192   1.106       .  S
C1187      H1193   1.109       .  S
C1190      H1194   1.106       .  S
C1190      H1195   1.110       .  S
C1190      H1196   1.111       .  S
C1197      C1198   1.396       .  A
C1197      C1202   1.401       .  A
C1197      H1204   1.085       .  S
C1198      C1199   1.415   1_565  A
C1199      C1200   1.395       .  A
C1199      C1206   1.507       .  S
C1200      C1201   1.395   1_545  A
C1200      H1205   1.085       .  S
C1201      C1202   1.421       .  A
C1202      C1203   1.508       .  S
C1203      H1207   1.109       .  S
C1203      H1208   1.111       .  S
C1203      H1209   1.108       .  S
C1206      H1210   1.110       .  S
C1206      H1211   1.109       .  S
C1206      H1212   1.111       .  S
C1213      C1214   1.398       .  A
C1213      C1218   1.402       .  A
C1213      H1220   1.085       .  S
C1214      C1215   1.417   1_565  A
C1215      C1216   1.400       .  A
C1215      C1222   1.507       .  S
C1216      C1217   1.398   1_545  A
C1216      H1221   1.085       .  S
C1217      C1218   1.417       .  A
C1218      C1219   1.507       .  S
C1219      H1223   1.111       .  S
C1219      H1224   1.109       .  S
C1219      H1225   1.109       .  S
C1222      H1226   1.109       .  S
C1222      H1227   1.110       .  S
C1222      H1228   1.111       .  S
C1229      C1230   1.400       .  A
C1229      C1234   1.398       .  A
C1229      H1236   1.085       .  S
C1230      C1231   1.407   1_545  A
C1231      C1232   1.401       .  A
C1231      C1238   1.506       .  S
C1232      C1233   1.403   1_565  A
C1232      H1237   1.084       .  S
C1233      C1234   1.412       .  A
C1234      C1235   1.507       .  S
C1235      H1239   1.111       .  S
C1235      H1240   1.108       .  S
C1235      H1241   1.110       .  S
C1238      H1242   1.110       .  S
C1238      H1243   1.107       .  S
C1238      H1244   1.111       .  S
C1245      C1246   1.407   1_565  A
C1245      C1250   1.403       .  A
C1245      H1252   1.084       .  S
C1246      C1247   1.411       .  A
C1247      C1248   1.405       .  A
C1247      C1254   1.507       .  S
C1248      C1249   1.410       .  A
C1248      H1253   1.085       .  S
C1249      C1250   1.410   1_545  A
C1250      C1251   1.507       .  S
C1251      H1255   1.111       .  S
C1251      H1256   1.111       .  S
C1251      H1257   1.109       .  S
C1254      H1258   1.107       .  S
C1254      H1259   1.110       .  S
C1254      H1260   1.110       .  S
C1261      C1262   1.405       .  A
C1261      C1266   1.411       .  A
C1261      H1268   1.081       .  S
C1262      C1263   1.418       .  A
C1263      C1264   1.410       .  A
C1263      C1270   1.503       .  S
C1264      C1265   1.406       .  A
C1264      H1269   1.082       .  S
C1265      C1266   1.420       .  A
C1266      C1267   1.506       .  S
C1267      H1271   1.111       .  S
C1267      H1272   1.106       .  S
C1267      H1273   1.110       .  S
C1270      H1274   1.109       .  S
C1270      H1275   1.107       .  S
C1270      H1276   1.111       .  S
C1277      C1278   1.402       .  A
C1277      C1282   1.405       .  A
C1277      H1284   1.085       .  S
C1278      C1279   1.418       .  A
C1279      C1280   1.409       .  A
C1279      C1286   1.506       .  S
C1280      C1281   1.403       .  A
C1280      H1285   1.084       .  S
C1281      C1282   1.417       .  A
C1282      C1283   1.506       .  S
C1283      H1287   1.111       .  S
C1283      H1288   1.110       .  S
C1283      H1289   1.107       .  S
C1286      H1290   1.107       .  S
C1286      H1291   1.110       .  S
C1286      H1292   1.110       .  S
C1293      C1294   1.409       .  A
C1293      C1298   1.414       .  A
C1293      H1300   1.084       .  S
C1294      C1295   1.417       .  A
C1295      C1296   1.410       .  A
C1295      C1302   1.508       .  S
C1296      C1297   1.407       .  A
C1296      H1301   1.082       .  S
C1297      C1298   1.420       .  A
C1298      C1299   1.505       .  S
C1299      H1303   1.111       .  S
C1299      H1304   1.110       .  S
C1299      H1305   1.107       .  S
C1302      H1306   1.110       .  S
C1302      H1307   1.109       .  S
C1302      H1308   1.111       .  S
C1309      C1310   1.404       .  A
C1309      C1314   1.408       .  A
C1309      H1316   1.085       .  S
C1310      C1311   1.415       .  A
C1311      C1312   1.407       .  A
C1311      C1318   1.505       .  S
C1312      C1313   1.405       .  A
C1312      H1317   1.083       .  S
C1313      C1314   1.420       .  A
C1314      C1315   1.505       .  S
C1315      H1319   1.111       .  S
C1315      H1320   1.107       .  S
C1315      H1321   1.110       .  S
C1318      H1322   1.109       .  S
C1318      H1323   1.110       .  S
C1318      H1324   1.111       .  S
C1325      C1326   1.400       .  A
C1325      C1330   1.403       .  A
C1325      H1332   1.084       .  S
C1326      C1327   1.415   1_455  A
C1327      C1328   1.404       .  A
C1327      C1334   1.503       .  S
C1328      C1329   1.399   1_655  A
C1328      H1333   1.084       .  S
C1329      C1330   1.415       .  A
C1330      C1331   1.508       .  S
C1331      H1335   1.111       .  S
C1331      H1336   1.110       .  S
C1331      H1337   1.108       .  S
C1334      H1338   1.109       .  S
C1334      H1339   1.109       .  S
C1334      H1340   1.111       .  S
C1341      C1342   1.402   1_455  A
C1341      C1346   1.407       .  A
C1341      H1348   1.084       .  S
C1342      C1343   1.420       .  A
C1343      C1344   1.399       .  A
C1343      C1350   1.510       .  S
C1344      C1345   1.396   1_655  A
C1344      H1349   1.084       .  S
C1345      C1346   1.417       .  A
C1346      C1347   1.509       .  S
C1347      H1351   1.110       .  S
C1347      H1352   1.109       .  S
C1347      H1353   1.111       .  S
C1350      H1354   1.107       .  S
C1350      H1355   1.107       .  S
C1350      H1356   1.111       .  S
C1357      C1358   1.407   1_655  A
C1357      C1362   1.401       .  A
C1357      H1364   1.085       .  S
C1358      C1359   1.408       .  A
C1359      C1360   1.401       .  A
C1359      C1366   1.507       .  S
C1360      C1361   1.406       .  A
C1360      H1365   1.083       .  S
C1361      C1362   1.408   1_455  A
C1362      C1363   1.504       .  S
C1363      H1367   1.111       .  S
C1363      H1368   1.107       .  S
C1363      H1369   1.109       .  S
C1366      H1370   1.107       .  S
C1366      H1371   1.110       .  S
C1366      H1372   1.110       .  S
C1373      C1374   1.396       .  A
C1373      C1378   1.395       .  A
C1373      H1380   1.085       .  S
C1374      C1375   1.413   1_455  A
C1375      C1376   1.407       .  A
C1375      C1382   1.507       .  S
C1376      C1377   1.404   1_655  A
C1376      H1381   1.084       .  S
C1377      C1378   1.417       .  A
C1378      C1379   1.509       .  S
C1379      H1383   1.111       .  S
C1379      H1384   1.107       .  S
C1379      H1385   1.111       .  S
C1382      H1386   1.111       .  S
C1382      H1387   1.110       .  S
C1382      H1388   1.111       .  S
C1389      C1390   1.404   1_455  A
C1389      C1394   1.397       .  A
C1389      H1396   1.085       .  S
C1390      C1391   1.411       .  A
C1391      C1392   1.405       .  A
C1391      C1398   1.506       .  S
C1392      C1393   1.405   1_655  A
C1392      H1397   1.084       .  S
C1393      C1394   1.408       .  A
C1394      C1395   1.509       .  S
C1395      H1399   1.111       .  S
C1395      H1400   1.111       .  S
C1395      H1401   1.110       .  S
C1398      H1402   1.107       .  S
C1398      H1403   1.111       .  S
C1398      H1404   1.111       .  S
C1405      C1406   1.406       .  A
C1405      C1410   1.399       .  A
C1405      H1412   1.085       .  S
C1406      C1407   1.411   1_655  A
C1407      C1408   1.401       .  A
C1407      C1414   1.506       .  S
C1408      C1409   1.401   1_455  A
C1408      H1413   1.080       .  S
C1409      C1410   1.410       .  A
C1410      C1411   1.508       .  S
C1411      H1415   1.109       .  S
C1411      H1416   1.107       .  S
C1411      H1417   1.110       .  S
C1414      H1418   1.107       .  S
C1414      H1419   1.110       .  S
C1414      H1420   1.110       .  S
C1421      C1422   1.403       .  A
C1421      C1426   1.397       .  A
C1421      H1428   1.085       .  S
C1422      C1423   1.405       .  A
C1423      C1424   1.395       .  A
C1423      C1430   1.506       .  S
C1424      C1425   1.404       .  A
C1424      H1429   1.085       .  S
C1425      C1426   1.408       .  A
C1426      C1427   1.507       .  S
C1427      H1431   1.109       .  S
C1427      H1432   1.111       .  S
C1427      H1433   1.108       .  S
C1430      H1434   1.110       .  S
C1430      H1435   1.111       .  S
C1430      H1436   1.110       .  S
C1437      C1438   1.402       .  A
C1437      C1442   1.399       .  A
C1437      H1444   1.085       .  S
C1438      C1439   1.409       .  A
C1439      C1440   1.394       .  A
C1439      C1446   1.509       .  S
C1440      C1441   1.401       .  A
C1440      H1445   1.085       .  S
C1441      C1442   1.409       .  A
C1442      C1443   1.507       .  S
C1443      H1447   1.111       .  S
C1443      H1448   1.108       .  S
C1443      H1449   1.111       .  S
C1446      H1450   1.108       .  S
C1446      H1451   1.110       .  S
C1446      H1452   1.110       .  S
C1453      C1454   1.403       .  A
C1453      C1458   1.396       .  A
C1453      H1460   1.085       .  S
C1454      C1455   1.411       .  A
C1455      C1456   1.403       .  A
C1455      C1462   1.508       .  S
C1456      C1457   1.405       .  A
C1456      H1461   1.084       .  S
C1457      C1458   1.407       .  A
C1458      C1459   1.508       .  S
C1459      H1463   1.111       .  S
C1459      H1464   1.110       .  S
C1459      H1465   1.110       .  S
C1462      H1466   1.110       .  S
C1462      H1467   1.111       .  S
C1462      H1468   1.107       .  S
C1469      C1470   1.404       .  A
C1469      C1474   1.396       .  A
C1469      H1476   1.084       .  S
C1470      C1471   1.405       .  A
C1471      C1472   1.398       .  A
C1471      C1478   1.506       .  S
C1472      C1473   1.406       .  A
C1472      H1477   1.085       .  S
C1473      C1474   1.407       .  A
C1474      C1475   1.506       .  S
C1475      H1479   1.110       .  S
C1475      H1480   1.107       .  S
C1475      H1481   1.110       .  S
C1478      H1482   1.107       .  S
C1478      H1483   1.110       .  S
C1478      H1484   1.111       .  S
C1485      C1486   1.406       .  A
C1485      C1490   1.399       .  A
C1485      H1492   1.085       .  S
C1486      C1487   1.412       .  A
C1487      C1488   1.406       .  A
C1487      C1494   1.505       .  S
C1488      C1489   1.406       .  A
C1488      H1493   1.083       .  S
C1489      C1490   1.412       .  A
C1490      C1491   1.509       .  S
C1491      H1495   1.110       .  S
C1491      H1496   1.110       .  S
C1491      H1497   1.106       .  S
C1494      H1498   1.110       .  S
C1494      H1499   1.106       .  S
C1494      H1500   1.108       .  S
C1501      C1502   1.399       .  A
C1501      C1506   1.399       .  A
C1501      H1508   1.085       .  S
C1502      C1503   1.417       .  A
C1503      C1504   1.404       .  A
C1503      C1510   1.508       .  S
C1504      C1505   1.400       .  A
C1504      H1509   1.084       .  S
C1505      C1506   1.417       .  A
C1506      C1507   1.511       .  S
C1507      H1511   1.111       .  S
C1507      H1512   1.107       .  S
C1507      H1513   1.108       .  S
C1510      H1514   1.110       .  S
C1510      H1515   1.109       .  S
C1510      H1516   1.111       .  S
C1517      C1518   1.398       .  A
C1517      C1522   1.402       .  A
C1517      H1524   1.084       .  S
C1518      C1519   1.417       .  A
C1519      C1520   1.396       .  A
C1519      C1526   1.510       .  S
C1520      C1521   1.395       .  A
C1520      H1525   1.082       .  S
C1521      C1522   1.419       .  A
C1522      C1523   1.510       .  S
C1523      H1527   1.111       .  S
C1523      H1528   1.110       .  S
C1523      H1529   1.109       .  S
C1526      H1530   1.108       .  S
C1526      H1531   1.108       .  S
C1526      H1532   1.111       .  S
C1533      C1534   1.397       .  A
C1533      C1538   1.395       .  A
C1533      H1540   1.086       .  S
C1534      C1535   1.410       .  A
C1535      C1536   1.401       .  A
C1535      C1542   1.507       .  S
C1536      C1537   1.402       .  A
C1536      H1541   1.084       .  S
C1537      C1538   1.418       .  A
C1538      C1539   1.510       .  S
C1539      H1543   1.111       .  S
C1539      H1544   1.110       .  S
C1539      H1545   1.108       .  S
C1542      H1546   1.109       .  S
C1542      H1547   1.110       .  S
C1542      H1548   1.111       .  S
C1549      C1550   1.406       .  A
C1549      C1554   1.414       .  A
C1549      H1556   1.084       .  S
C1550      C1551   1.414   1_655  A
C1551      C1552   1.409       .  A
C1551      C1558   1.506       .  S
C1552      C1553   1.405       .  A
C1552      H1557   1.083       .  S
C1553      C1554   1.419   1_455  A
C1554      C1555   1.502       .  S
C1555      H1559   1.111       .  S
C1555      H1560   1.105       .  S
C1555      H1561   1.110       .  S
C1558      H1562   1.110       .  S
C1558      H1563   1.110       .  S
C1558      H1564   1.111       .  S
C1565      C1566   1.404       .  A
C1565      C1570   1.409       .  A
C1565      H1572   1.084       .  S
C1566      C1567   1.418   1_455  A
C1567      C1568   1.418       .  A
C1567      C1574   1.505       .  S
C1568      C1569   1.409   1_655  A
C1568      H1573   1.083       .  S
C1569      C1570   1.420       .  A
C1570      C1571   1.505       .  S
C1571      H1575   1.111       .  S
C1571      H1576   1.110       .  S
C1571      H1577   1.105       .  S
C1574      H1578   1.110       .  S
C1574      H1579   1.109       .  S
C1574      H1580   1.111       .  S
C1581      C1582   1.403   1_455  A
C1581      C1586   1.408       .  A
C1581      H1588   1.085       .  S
C1582      C1583   1.415       .  A
C1583      C1584   1.411       .  A
C1583      C1590   1.505       .  S
C1584      C1585   1.407       .  A
C1584      H1589   1.083       .  S
C1585      C1586   1.419   1_655  A
C1586      C1587   1.504       .  S
C1587      H1591   1.111       .  S
C1587      H1592   1.111       .  S
C1587      H1593   1.106       .  S
C1590      H1594   1.108       .  S
C1590      H1595   1.110       .  S
C1590      H1596   1.111       .  S
C1597      C1598   1.404       .  A
C1597      C1602   1.406   1_455  A
C1597      H1604   1.084   1_455  S
C1598      C1599   1.417       .  A
C1599      C1600   1.396       .  A
C1599      C1606   1.509       .  S
C1600      C1601   1.396       .  A
C1600      H1605   1.085       .  S
C1601      C1602   1.412   1_455  A
C1602      C1603   1.506       .  S
C1603      H1607   1.111       .  S
C1603      H1608   1.110       .  S
C1603      H1609   1.110       .  S
C1606      H1610   1.110       .  S
C1606      H1611   1.107       .  S
C1606      H1612   1.110       .  S
C1613      C1614   1.405   1_655  A
C1613      C1618   1.397       .  A
C1613      H1620   1.085       .  S
C1614      C1615   1.408       .  A
C1615      C1616   1.403       .  A
C1615      C1622   1.507       .  S
C1616      C1617   1.409       .  A
C1616      H1621   1.085       .  S
C1617      C1618   1.409   1_455  A
C1618      C1619   1.508       .  S
C1619      H1623   1.110       .  S
C1619      H1624   1.111       .  S
C1619      H1625   1.107       .  S
C1622      H1626   1.108       .  S
C1622      H1627   1.110       .  S
C1622      H1628   1.111       .  S
C1629      C1630   1.400       .  A
C1629      C1634   1.403       .  A
C1629      H1636   1.084       .  S
C1630      C1631   1.413   1_455  A
C1631      C1632   1.411       .  A
C1631      C1638   1.504       .  S
C1632      C1633   1.407   1_655  A
C1632      H1637   1.083       .  S
C1633      C1634   1.419       .  A
C1634      C1635   1.504       .  S
C1635      H1639   1.111       .  S
C1635      H1640   1.110       .  S
C1635      H1641   1.104       .  S
C1638      H1642   1.108       .  S
C1638      H1643   1.110       .  S
C1638      H1644   1.110       .  S
