geometry optimzed in LAMMPS
_audit_creation_date              2020-11-30 
_audit_creation_method            'lammps2cif' 
_symmetry_space_group_name_H-M    'P1' 
_symmetry_Int_Tables_number       1 
_symmetry_cell_setting            triclinic 
loop_ 
_symmetry_equiv_pos_as_xyz 
  x,y,z 
_cell_length_a                    37.415307497855835 
_cell_length_b                    48.16281689479252 
_cell_length_c                    27.639512993089532 
_cell_angle_alpha                 89.91600005834714 
_cell_angle_beta                  89.93554263102538 
_cell_angle_gamma                 90.09914655734799 
loop_ 
_atom_site_label 
_atom_site_type_symbol 
_atom_site_fract_x 
_atom_site_fract_y 
_atom_site_fract_z 
_atom_site_charge 
N1          N  0.70574128  0.07519332  0.29411978    -0.27560
N2          N  0.69155544  0.09903794  0.30802482    -0.35420
C3          C  0.66219330  0.09383777  0.33467423     0.00780
C4          C  0.65785990  0.06542657  0.33770978     0.06810
C5          C  0.68579407  0.05417938  0.31164366    -0.06290
H6          H  0.64525967  0.10956590  0.35057613     0.07480
H7          H  0.69112832  0.03237786  0.30563299     0.08680
Cu8        Cu  0.71232289  0.13765582  0.29003503     0.44170
Cu9        Cu  0.75109281  0.07225583  0.25114529     0.41990
Cu10       Cu  0.78857552  0.13765393  0.21014644     0.43880
N11         N  0.73764812  0.17354656  0.26645301    -0.34940
N12         N  0.76547813  0.17351892  0.23695223    -0.29200
C13         C  0.77549144  0.19988224  0.22818735    -0.05300
C14         C  0.75286173  0.21731687  0.25343469     0.06920
C15         C  0.72920926  0.19994696  0.27733299     0.00710
H16         H  0.79759132  0.20585150  0.20515027     0.08370
H17         H  0.70738398  0.20599391  0.30070521     0.07440
N18         N  0.80812867  0.09919658  0.18984380    -0.36390
N19         N  0.79513537  0.07530707  0.20572853    -0.28570
C20         C  0.81420481  0.05441209  0.18639551    -0.03810
C21         C  0.84034417  0.06576852  0.15693611     0.04800
C22         C  0.83551246  0.09415300  0.15960808     0.02890
H23         H  0.80891026  0.03258580  0.19246589     0.08000
H24         H  0.85085217  0.10998918  0.14105927     0.06830
O25         O  0.95412356  0.02013679  0.99628180    -0.73210
O26         O  0.02553679  0.98018466  0.91351124    -0.74190
O27         O  0.94999144  0.98034680  0.92129406    -0.62810
O28         O  0.02991164  0.01999875  0.98901722    -0.71220
O29         O  0.03167620  0.98682210  0.04433460    -0.70780
O30         O  0.95360088  0.94620894  0.97474071    -0.62030
O31         O  0.02953172  0.94704354  0.96913631    -0.74540
O32         O  0.95591619  0.98603394  0.04999315    -0.73320
Cu33       Cu  0.98981784  0.00134902  0.95315152     1.04560
Cu34       Cu  0.99277519  0.96533726  0.01141391     1.04330
C35         C  0.94320573  0.00927793  0.03580527     0.92990
C36         C  0.03915155  0.95748475  0.92863473     0.92120
C37         C  0.93898381  0.95696824  0.93745952     0.84270
C38         C  0.04336124  0.00987989  0.02764299     0.90540
N39         N  0.20947591  0.07575153  0.16897370    -0.27560
N40         N  0.19180403  0.09910069  0.16155694    -0.35420
C41         C  0.16124449  0.09333676  0.13819919     0.00780
C42         C  0.15929650  0.06494094  0.13019738     0.06810
C43         C  0.19078660  0.05457513  0.14973661    -0.06290
H44         H  0.14179023  0.10883213  0.12792045     0.07480
H45         H  0.20013077  0.03337907  0.14930203     0.08680
Cu46       Cu  0.20988592  0.13818601  0.18136359     0.44170
Cu47       Cu  0.25686616  0.07339756  0.20806931     0.41990
Cu48       Cu  0.28464891  0.13902581  0.26079539     0.43880
N49         N  0.23468859  0.17462035  0.20305947    -0.34940
N50         N  0.26247127  0.17483883  0.23248990    -0.29200
C51         C  0.27297639  0.20122499  0.23965035    -0.05300
C52         C  0.25060288  0.21846868  0.21354442     0.06920
C53         C  0.22663555  0.20091468  0.19071895     0.00710
H54         H  0.29513806  0.20735057  0.26236131     0.08370
H55         H  0.20492458  0.20677029  0.16703621     0.07440
N56         N  0.30634683  0.10099791  0.27925362    -0.36390
N57         N  0.29804265  0.07727464  0.25815142    -0.28570
C58         C  0.31880673  0.05711491  0.27668512    -0.03810
C59         C  0.34138225  0.06867073  0.31120869     0.04800
C60         C  0.33193096  0.09649942  0.31232233     0.02890
H61         H  0.31744922  0.03557112  0.26578015     0.08000
H62         H  0.34190744  0.11246918  0.33611179     0.06830
N63         N  0.77749102  0.89087477  0.79142315    -0.27560
N64         N  0.79066166  0.86706545  0.80712107    -0.35420
C65         C  0.81986543  0.87216942  0.83394442     0.00780
C66         C  0.82566059  0.90051867  0.83453087     0.06810
C67         C  0.79812709  0.91177805  0.80754880    -0.06290
H68         H  0.83597641  0.85637728  0.85120193     0.07480
H69         H  0.79318086  0.93354528  0.80055898     0.08680
Cu70       Cu  0.76922683  0.82868602  0.79010922     0.44170
Cu71       Cu  0.73237629  0.89376340  0.74844784     0.41990
Cu72       Cu  0.69277019  0.82849384  0.71033047     0.43880
N73         N  0.74426780  0.79285552  0.76637173    -0.34940
N74         N  0.71631562  0.79271913  0.73716210    -0.29200
C75         C  0.70646882  0.76628047  0.72887665    -0.05300
C76         C  0.72935101  0.74902409  0.75414022     0.06920
C77         C  0.75299679  0.76654411  0.77745120     0.00710
H78         H  0.68420788  0.76014196  0.70635471     0.08370
H79         H  0.77482537  0.76067648  0.80092554     0.07440
N80         N  0.67451514  0.86714325  0.68847862    -0.36390
N81         N  0.68873735  0.89089285  0.70275047    -0.28570
C82         C  0.67095120  0.91198351  0.68196008    -0.03810
C83         C  0.64455019  0.90100890  0.65254660     0.04800
C84         C  0.64735532  0.87251305  0.65810390     0.02890
H85         H  0.67663629  0.93368658  0.68844373     0.08000
H86         H  0.63108142  0.85678725  0.64088653     0.06830
O87         O  0.45525399  0.02031108  0.46763915    -0.73210
O88         O  0.52634702  0.98066800  0.55108385    -0.74190
O89         O  0.53092004  0.01950098  0.47470602    -0.62810
O90         O  0.45039725  0.98122838  0.54423623    -0.71220
O91         O  0.45325870  0.94637258  0.49200148    -0.70780
O92         O  0.53158850  0.98565043  0.42016722    -0.62030
O93         O  0.52874036  0.94638708  0.49741240    -0.74540
O94         O  0.45584336  0.98530873  0.41548133    -0.73320
Cu95       Cu  0.49064112  0.00163168  0.51129874     1.04560
Cu96       Cu  0.49247667  0.96471936  0.45440101     1.04330
C97         C  0.44400727  0.00895815  0.42876204     0.92990
C98         C  0.53881340  0.95735238  0.53718925     0.92120
C99         C  0.54364517  0.00869250  0.43622343     0.84270
C100        C  0.43907783  0.95776210  0.52903312     0.90540
N101        N  0.19009994  0.89067476  0.76636833    -0.27560
N102        N  0.17384352  0.86698643  0.77691414    -0.35420
C103        C  0.14496323  0.87230264  0.80436585     0.00780
C104        C  0.14293916  0.90061889  0.81124720     0.06810
C105        C  0.17192081  0.91169389  0.78690214    -0.06290
H106        H  0.12698056  0.85668540  0.81860353     0.07480
H107        H  0.17935712  0.93337555  0.78450181     0.08680
Cu108      Cu  0.19137272  0.82823613  0.75453241     0.44170
Cu109      Cu  0.23616088  0.89347861  0.72440831     0.41990
Cu110      Cu  0.26369089  0.82842248  0.66984370     0.43880
N111        N  0.21420890  0.79218544  0.72772733    -0.34940
N112        N  0.24096549  0.79230514  0.69649732    -0.29200
C113        C  0.25053770  0.76597130  0.68692957    -0.05300
C114        C  0.22858284  0.74843373  0.71326770     0.06920
C115        C  0.20584056  0.76573967  0.73871095     0.00710
H116        H  0.27197589  0.76009230  0.66277591     0.08370
H117        H  0.18499448  0.75962263  0.76369435     0.07440
N118        N  0.28729211  0.86635591  0.65492337    -0.36390
N119        N  0.27905494  0.88979069  0.67693957    -0.28570
C120        C  0.30183053  0.90970342  0.66206498    -0.03810
C121        C  0.32565303  0.89832082  0.62887642     0.04800
C122        C  0.31479137  0.87085558  0.62469403     0.02890
H123        H  0.30115331  0.93091374  0.67486961     0.08000
H124        H  0.32520586  0.85509728  0.60090922     0.06830
N125        N  0.69018228  0.57671284  0.70318177    -0.27560
N126        N  0.67271197  0.60021095  0.69628154    -0.35420
C127        C  0.64390479  0.59532359  0.66865691     0.00780
C128        C  0.64343097  0.56747568  0.65643518     0.06810
C129        C  0.67293619  0.55623073  0.67966061    -0.06290
H130        H  0.62465053  0.61101097  0.65869579     0.07480
H131        H  0.68153721  0.53479590  0.67894164     0.08680
Cu132      Cu  0.68932451  0.63849065  0.72140494     0.44170
Cu133      Cu  0.73654296  0.57389205  0.74445461     0.41990
Cu134      Cu  0.76452056  0.63902484  0.80033501     0.43880
N135        N  0.71316283  0.67470509  0.74514998    -0.34940
N136        N  0.74101397  0.67492634  0.77445272    -0.29200
C137        C  0.75111700  0.70135373  0.78216014    -0.05300
C138        C  0.72841362  0.71854365  0.75645699     0.06920
C139        C  0.70468017  0.70097189  0.73337970     0.00710
H140        H  0.77345919  0.70752240  0.80450894     0.08370
H141        H  0.68303219  0.70676928  0.70954727     0.07440
N142        N  0.78831297  0.60104871  0.81360986    -0.36390
N143        N  0.77972072  0.57770564  0.79142275    -0.28570
C144        C  0.80252585  0.55772502  0.80553434    -0.03810
C145        C  0.82675133  0.56896860  0.83825889     0.04800
C146        C  0.81619098  0.59641560  0.84305196     0.02890
H147        H  0.80157442  0.53654668  0.79258012     0.08000
H148        H  0.82718258  0.61202836  0.86675880     0.06830
N149        N  0.70488898  0.38929459  0.29433346    -0.27560
N150        N  0.69571338  0.36548008  0.31445464    -0.35420
C151        C  0.66781785  0.36956655  0.34409853     0.00780
C152        C  0.65754298  0.39725030  0.34155534     0.06810
C153        C  0.68222794  0.40906699  0.30970290    -0.06290
H154        H  0.65706037  0.35330192  0.36644561     0.07480
H155        H  0.68376306  0.43050542  0.29822430     0.08680
Cu156      Cu  0.71875495  0.32763346  0.29821597     0.44170
Cu157      Cu  0.74915924  0.39361068  0.24933900     0.41990
Cu158      Cu  0.79025214  0.32785827  0.21325027     0.43880
N159        N  0.74111590  0.29160778  0.27117999    -0.34940
N160        N  0.76764306  0.29164789  0.23962558    -0.29200
C161        C  0.77610342  0.26527296  0.22860965    -0.05300
C162        C  0.75361915  0.24784104  0.25438880     0.06920
C163        C  0.73174440  0.26522640  0.28094964     0.00710
H164        H  0.79688945  0.25929523  0.20350045     0.08370
H165        H  0.71053837  0.25921319  0.30544605     0.07440
N166        N  0.80959744  0.36662267  0.19419803    -0.36390
N167        N  0.79554269  0.39051215  0.20813951    -0.28570
C168        C  0.81530074  0.41142714  0.18979988    -0.03810
C169        C  0.84283289  0.40003587  0.16297574     0.04800
C170        C  0.83820896  0.37167757  0.16614784     0.02890
H171        H  0.80934119  0.43325637  0.19424096     0.08000
H172        H  0.85426693  0.35584917  0.14892547     0.06830
N173        N  0.18515850  0.57591095  0.76046112    -0.27560
N174        N  0.17328250  0.59977130  0.77775470    -0.35420
C175        C  0.14711316  0.59468982  0.80993092     0.00780
C176        C  0.14229468  0.56631856  0.81278195     0.06810
C177        C  0.16659158  0.55499020  0.78081386    -0.06290
H178        H  0.13257204  0.61047376  0.82957862     0.07480
H179        H  0.17089539  0.53317831  0.77351825     0.08680
Cu180      Cu  0.19287839  0.63818982  0.75694188     0.44170
Cu181      Cu  0.22752242  0.57287787  0.71249879     0.41990
Cu182      Cu  0.27044163  0.63811499  0.67973391     0.43880
N183        N  0.21655047  0.67405675  0.73071511    -0.34940
N184        N  0.24493814  0.67412392  0.70220828    -0.29200
C185        C  0.25357571  0.70055929  0.69144133    -0.05300
C186        C  0.22947299  0.71789055  0.71442676     0.06920
C187        C  0.20639240  0.70039262  0.73898677     0.00710
H188        H  0.27580894  0.70666103  0.66875070     0.08370
H189        H  0.18385126  0.70630140  0.76119052     0.07440
N190        N  0.29018586  0.59924982  0.66144542    -0.36750
N191        N  0.27406878  0.57558919  0.67216344    -0.28570
C192        C  0.29345938  0.55441555  0.65449718    -0.03810
C193        C  0.32370594  0.56517279  0.63229053     0.04800
C194        C  0.32041678  0.59371469  0.63704065     0.02890
H195        H  0.28554619  0.53286576  0.65699690     0.08000
H196        H  0.33878164  0.60938217  0.62390849     0.06830
O197        O  0.03024725  0.44688165  0.99170289    -0.73210
O198        O  0.94934448  0.48509103  0.92356297    -0.74190
O199        O  0.02478485  0.48612131  0.91564381    -0.62810
O200        O  0.95460981  0.44581769  0.99979653    -0.71220
O201        O  0.95570432  0.48048578  0.05234103    -0.70780
O202        O  0.02870775  0.51967248  0.97030336    -0.62030
O203        O  0.95303017  0.51996346  0.97565875    -0.74540
O204        O  0.03114949  0.48033419  0.04690626    -0.73320
Cu205      Cu  0.98966537  0.46477355  0.95584281     1.04560
Cu206      Cu  0.99222086  0.50132518  0.01317632     1.04330
C207        C  0.04309111  0.45741070  0.03036756     0.92990
C208        C  0.93862520  0.50871586  0.93861819     0.92120
C209        C  0.03786312  0.50924977  0.92964143     0.84270
C210        C  0.94371404  0.45681254  0.03913281     0.90540
O211        O  0.53265526  0.48020835  0.42418025    -0.73210
O212        O  0.45302133  0.51957864  0.49216259    -0.74190
O213        O  0.52870922  0.51933565  0.50027887    -0.62810
O214        O  0.45683538  0.47995847  0.41645288    -0.71220
O215        O  0.45375571  0.44624278  0.47053010    -0.70780
O216        O  0.52523878  0.48531407  0.55379525    -0.62030
O217        O  0.44964827  0.48580503  0.54609976    -0.74540
O218        O  0.52932737  0.44603062  0.47778380    -0.73320
Cu219      Cu  0.49289391  0.50096268  0.45640941     1.04560
Cu220      Cu  0.48937214  0.46467520  0.51388297     1.04330
C221        C  0.54382005  0.45697830  0.44041137     0.92990
C222        C  0.43860385  0.50914421  0.52987016     0.92120
C223        C  0.53863656  0.50842469  0.54030808     0.84270
C224        C  0.44377005  0.45670157  0.43036992     0.90540
N225        N  0.29333579  0.39107896  0.26159350    -0.27560
N226        N  0.30901418  0.36734210  0.27267129    -0.35420
C227        C  0.33754035  0.37259440  0.30073694     0.00780
C228        C  0.34021266  0.40103438  0.30735017     0.06810
C229        C  0.31144488  0.41204989  0.28237096    -0.06290
H230        H  0.35497827  0.35682257  0.31548424     0.07480
H231        H  0.30352743  0.43360974  0.28049384     0.08680
Cu232      Cu  0.29050302  0.32877891  0.25039440     0.44170
Cu233      Cu  0.24790761  0.39387096  0.21911463     0.41990
Cu234      Cu  0.21306047  0.32875874  0.17260787     0.43880
N235        N  0.26631647  0.29284909  0.22494438    -0.34940
N236        N  0.23798139  0.29283634  0.19641087    -0.29200
C237        C  0.22829406  0.26642720  0.18741844    -0.05300
C238        C  0.25164243  0.24900672  0.21153219     0.06920
C239        C  0.27542279  0.26644667  0.23490068     0.00710
H240        H  0.20561380  0.26041612  0.16556908     0.08370
H241        H  0.29741878  0.26045022  0.25798330     0.07440
N242        N  0.19183162  0.36734586  0.15596813    -0.36390
N243        N  0.20408757  0.39103208  0.17364460    -0.28570
C244        C  0.18382609  0.41202160  0.15703613    -0.03810
C245        C  0.15790305  0.40095539  0.12724227     0.04800
C246        C  0.16360447  0.37264978  0.12736368     0.02890
H247        H  0.18769463  0.43368774  0.16599158     0.08000
H248        H  0.14809296  0.35703347  0.10862924     0.06830
C249        C  0.37665336  0.40349314  0.38204323    -0.09420
C250        C  0.36649234  0.41575929  0.33815673     0.06770
C251        C  0.38202213  0.44134218  0.32474746    -0.03190
C252        C  0.40680996  0.45415784  0.35538407    -0.07640
C253        C  0.41700742  0.44201298  0.39964488     0.05890
C254        C  0.40143481  0.41617742  0.41276185    -0.02670
Br255      Br  0.41196841  0.39635512  0.47150345    -0.02360
H256        H  0.36490284  0.38386733  0.39290142     0.09800
H257        H  0.41848086  0.47369842  0.34397785     0.07820
Br258      Br  0.37288788  0.45892869  0.26361781    -0.02790
C259        C  0.10251430  0.43484688  0.02947376    -0.09420
C260        C  0.07226460  0.44309770  0.05578124     0.06770
C261        C  0.07052026  0.43757979  0.10583776    -0.03190
C262        C  0.09895077  0.42409816  0.12873989    -0.07640
C263        C  0.12913650  0.41592783  0.10237556     0.05890
C264        C  0.13098057  0.42149780  0.05248746    -0.02670
Br265      Br  0.17225909  0.41195904  0.01486236    -0.02360
H266        H  0.10421681  0.43917536  0.99103016     0.09800
H267        H  0.09726083  0.41955046  0.16710691     0.07820
Br268      Br  0.02897526  0.44621297  0.14373046    -0.02790
C269        C  0.09315812  0.53734806  0.92126042    -0.09420
C270        C  0.06420568  0.52387197  0.89903661     0.06770
C271        C  0.06126488  0.52450431  0.84809587    -0.03190
C272        C  0.08739225  0.53802867  0.82052456    -0.07640
C273        C  0.11619551  0.55141527  0.84288534     0.05890
C274        C  0.11909184  0.55101490  0.89359784    -0.02670
Br275      Br  0.15879418  0.56777570  0.92639125    -0.02360
H276        H  0.09593969  0.53687922  0.96029578     0.09800
H277        H  0.08478197  0.53867641  0.78147015     0.07820
Br278      Br  0.02092494  0.50928189  0.81431377    -0.02790
C279        C  0.36810558  0.56277694  0.56574780    -0.09420
C280        C  0.35261953  0.55016153  0.60649394     0.06770
C281        C  0.36582766  0.52415804  0.62187113    -0.03190
C282        C  0.39339608  0.51131722  0.59605849    -0.07640
C283        C  0.40898878  0.52388968  0.55513272     0.05890
C284        C  0.39596588  0.55017698  0.54022287    -0.02670
Br285      Br  0.41452987  0.57092755  0.48622026    -0.02360
H286        H  0.35837424  0.58272744  0.55335888     0.09800
H287        H  0.40305591  0.49142813  0.60883641     0.07820
Br288      Br  0.35006496  0.50585669  0.67988785    -0.02790
C289        C  0.57203694  0.41321074  0.41356620    -0.09420
C290        C  0.57314216  0.44222882  0.41544050     0.06770
C291        C  0.60182691  0.45624640  0.39305944    -0.03190
C292        C  0.62884594  0.44108354  0.37016628    -0.07640
C293        C  0.62782906  0.41184273  0.36754744     0.05890
C294        C  0.59828364  0.39797249  0.38928437    -0.02670
Br295      Br  0.58870554  0.35887654  0.38519695    -0.02360
H296        H  0.54972793  0.40224518  0.42980164     0.09800
H297        H  0.65091918  0.45254051  0.35467182     0.07820
Br298      Br  0.60675977  0.49596952  0.39421305    -0.02790
C299        C  0.86870057  0.40929273  0.08238092    -0.09420
C300        C  0.86875715  0.41470257  0.13210244     0.06770
C301        C  0.89368951  0.43356915  0.15123286    -0.03190
C302        C  0.91764026  0.44717514  0.12029650    -0.07640
C303        C  0.91754139  0.44201807  0.07017646     0.05890
C304        C  0.89266169  0.42269366  0.05134306    -0.02670
Br305      Br  0.88846847  0.41415547  0.98378010    -0.02360
H306        H  0.84953600  0.39473673  0.06750022     0.09800
H307        H  0.93691878  0.46143951  0.13571180     0.07820
Br308      Br  0.89771619  0.43986024  0.21954114    -0.02790
C309        C  0.85313243  0.52522507  0.87026513    -0.09420
C310        C  0.85620724  0.55409743  0.86362745     0.06770
C311        C  0.88742875  0.56755243  0.88086482    -0.03190
C312        C  0.91330113  0.55237935  0.90605455    -0.07640
C313        C  0.90998847  0.52363205  0.91259407     0.05890
C314        C  0.87979896  0.50996376  0.89360269    -0.02670
Br315      Br  0.87252385  0.47071751  0.89969818    -0.02360
H316        H  0.82969157  0.51427901  0.85754811     0.09800
H317        H  0.93694231  0.56299802  0.91911840     0.07820
Br318      Br  0.89921561  0.60563466  0.86761231    -0.02790
C319        C  0.60707381  0.52545479  0.63885347    -0.09420
C320        C  0.61685757  0.55263734  0.62615711     0.06770
C321        C  0.60137186  0.56473959  0.58461641    -0.03190
C322        C  0.57595601  0.54999953  0.55794212    -0.07640
C323        C  0.56565887  0.52288483  0.57083800     0.05890
C324        C  0.58198831  0.51048299  0.61180684    -0.02670
Br325      Br  0.57288242  0.47306465  0.63291047    -0.02360
H326        H  0.61894802  0.51573112  0.67033752     0.09800
H327        H  0.56451176  0.55987436  0.52632095     0.07820
Br328      Br  0.61565819  0.60020360  0.55918310    -0.02790
C329        C  0.41187675  0.91423936  0.55924982    -0.09420
C330        C  0.40991345  0.94315195  0.55468323     0.06770
C331        C  0.38034485  0.95716207  0.57456249    -0.03190
C332        C  0.35331525  0.94207452  0.59786620    -0.07640
C333        C  0.35529204  0.91300377  0.60311786     0.05890
C334        C  0.38567977  0.89918228  0.58409807    -0.02670
Br335      Br  0.39618875  0.86055281  0.59374329    -0.02360
H336        H  0.43471659  0.90328078  0.54466575     0.09800
H337        H  0.33043560  0.95331322  0.61151065     0.07820
Br338      Br  0.37426322  0.99661990  0.56878975    -0.02790
C339        C  0.58275428  0.90580050  0.62114606    -0.09420
C340        C  0.61790981  0.91606907  0.62295942     0.06770
C341        C  0.62670449  0.94008222  0.59590591    -0.03190
C342        C  0.60032915  0.95351344  0.56876846    -0.07640
C343        C  0.56540916  0.94311256  0.56714203     0.05890
C344        C  0.55661740  0.91909085  0.59348048    -0.02670
Br345      Br  0.50904748  0.90424346  0.59384113    -0.02360
H346        H  0.57543796  0.88748066  0.64172208     0.09800
H347        H  0.60730793  0.97178826  0.54781333     0.07820
Br348      Br  0.67454106  0.95422419  0.59053885    -0.02790
C349        C  0.36347603  0.02529734  0.35042103    -0.09420
C350        C  0.36833632  0.05385047  0.34136937     0.06770
C351        C  0.39894960  0.06710051  0.36099115    -0.03190
C352        C  0.42262946  0.05209326  0.39004240    -0.07640
C353        C  0.41764941  0.02371345  0.39867020     0.05890
C354        C  0.38791219  0.01018649  0.37823801    -0.02670
Br355      Br  0.37828557  0.97149059  0.38913996    -0.02360
H356        H  0.34032065  0.01456368  0.33627639     0.09800
H357        H  0.44590707  0.06250060  0.40472465     0.07820
Br358      Br  0.41296580  0.10460783  0.34675348    -0.02790
C359        C  0.86127689  0.90837385  0.90867291    -0.09420
C360        C  0.85439862  0.91533655  0.86033341     0.06770
C361        C  0.87527731  0.93596114  0.83770708    -0.03190
C362        C  0.90244772  0.94920711  0.86361142    -0.07640
C363        C  0.90948408  0.94235172  0.91217602     0.05890
C364        C  0.88817796  0.92178168  0.93488134    -0.02670
Br365      Br  0.89249545  0.91181664  0.00198887    -0.02360
H366        H  0.84509559  0.89272182  0.92650465     0.09800
H367        H  0.91857356  0.96467262  0.84523618     0.07820
Br368      Br  0.86979631  0.94551396  0.77065475    -0.02790
C369        C  0.09247597  0.00976376  0.08836485    -0.09420
C370        C  0.07294156  0.02443073  0.05320886     0.06770
C371        C  0.08210034  0.05247075  0.04417151    -0.03190
C372        C  0.11061262  0.06468018  0.06899924    -0.07640
C373        C  0.13018559  0.05003202  0.10412597     0.05890
C374        C  0.12038733  0.02222557  0.11412981    -0.02670
Br375      Br  0.14112966  0.00036237  0.16496242    -0.02360
H376        H  0.08572423  0.98838149  0.09657383     0.09800
H377        H  0.11732397  0.08603959  0.06071252     0.07820
Br378      Br  0.05611611  0.07625983  0.00080330    -0.02790
C379        C  0.05909610  0.93843266  0.84973081    -0.09420
C380        C  0.06612743  0.94319573  0.89891382     0.06770
C381        C  0.09888674  0.93432507  0.91874559    -0.03190
C382        C  0.12380462  0.92067914  0.88946281    -0.07640
C383        C  0.11647426  0.91557066  0.84058110     0.05890
C384        C  0.08387112  0.92446685  0.82066345    -0.02670
Br385      Br  0.07208071  0.91771946  0.75417712    -0.02360
H386        H  0.03401863  0.94515974  0.83412144     0.09800
H387        H  0.14898409  0.91402681  0.90485646     0.07820
Br388      Br  0.11173434  0.94176547  0.98472306    -0.02790
C389        C  0.60502552  0.02793443  0.43449233    -0.09420
C390        C  0.57271544  0.02291769  0.41035079     0.06770
C391        C  0.56861259  0.03183517  0.36212888    -0.03190
C392        C  0.59674382  0.04561409  0.33880537    -0.07640
C393        C  0.62911787  0.05041054  0.36286153     0.05890
C394        C  0.63328979  0.04137989  0.41093470    -0.02670
Br395      Br  0.67702055  0.04711098  0.44566341    -0.02360
H396        H  0.60838262  0.02111517  0.47161462     0.09800
H397        H  0.59328799  0.05277124  0.30190105     0.07820
Br398      Br  0.52445950  0.02708984  0.32781939    -0.02790
C399        C  0.86750741  0.05670418  0.07679341    -0.09420
C400        C  0.86640455  0.05094446  0.12646812     0.06770
C401        C  0.89023715  0.03135845  0.14599959    -0.03190
C402        C  0.91480042  0.01799880  0.11580862    -0.07640
C403        C  0.91613169  0.02371144  0.06589161     0.05890
C404        C  0.89166829  0.04310107  0.04632962    -0.02670
Br405      Br  0.88784806  0.05085836  0.97829541    -0.02360
H406        H  0.84890058  0.07149394  0.06142027     0.09800
H407        H  0.93337290  0.00338620  0.13171981     0.07820
Br408      Br  0.89197945  0.02346006  0.21404411    -0.02790
loop_ 
_geom_bond_atom_site_label_1 
_geom_bond_atom_site_label_2 
_geom_bond_distance 
_geom_bond_site_symmetry_2 
_ccdc_geom_bond_type 
N1            N2   1.323       .  A
N1            C5   1.346       .  A
N1           Cu9   2.075       .  S
N2            C3   1.345       .  A
N2           Cu8   2.074       .  S
C3            C4   1.380       .  A
C3            H6   1.082       .  S
C4            C5   1.381       .  A
C4          C393   1.469       .  S
C5            H7   1.082       .  S
Cu8          N11   2.074       .  S
Cu9          N19   2.075       .  S
Cu10         N12   2.071       .  S
Cu10         N18   2.071       .  S
N11          N12   1.322       .  A
N11          C15   1.345       .  A
N12          C13   1.345       .  A
C13          C14   1.383       .  A
C13          H16   1.081       .  S
C14          C15   1.383       .  A
C14         C162   1.471       .  S
C15          H17   1.081       .  S
N18          N19   1.323       .  A
N18          C22   1.344       .  A
N19          C20   1.346       .  A
C20          C21   1.383       .  A
C20          H23   1.082       .  S
C21          C22   1.381       .  A
C21         C400   1.474       .  S
C22          H24   1.082       .  S
O25         Cu33   2.007       .  S
O25          C35   1.277   1_556  A
O26         Cu33   2.008   1_465  S
O26          C36   1.277       .  A
O27         Cu33   2.005   1_565  S
O27          C37   1.278       .  A
O28         Cu33   2.010   1_455  S
O28          C38   1.277   1_556  A
O29         Cu34   2.004   1_455  S
O29          C38   1.278   1_565  A
O30         Cu34   2.006   1_556  S
O30          C37   1.277       .  A
O31         Cu34   2.009   1_456  S
O31          C36   1.278       .  A
O32         Cu34   2.009       .  S
O32          C35   1.278   1_565  A
Cu33        Cu34   2.368   1_546  S
C35         C403   1.484       .  S
C36         C380   1.473       .  S
C37         C363   1.484       .  S
C38         C370   1.489       .  S
N39          N40   1.321       .  A
N39          C43   1.346       .  A
N39         Cu47   2.081       .  S
N40          C41   1.342       .  A
N40         Cu46   2.074       .  S
C41          C42   1.388       .  A
C41          H44   1.081       .  S
C42          C43   1.390       .  A
C42         C373   1.491       .  S
C43          H45   1.080       .  S
Cu46         N49   2.073       .  S
Cu47         N57   2.081       .  S
Cu48         N50   2.068       .  S
Cu48         N56   2.068       .  S
N49          N50   1.321       .  A
N49          C53   1.346       .  A
N50          C51   1.345       .  A
C51          C52   1.383       .  A
C51          H54   1.081       .  S
C52          C53   1.385       .  A
C52         C238   1.472       .  S
C53          H55   1.081       .  S
N56          N57   1.320       .  A
N56          C60   1.342       .  A
N57          C58   1.346       .  A
C58          C59   1.391       .  A
C58          H61   1.082       .  S
C59          C60   1.387       .  A
C59         C350   1.491       .  S
C60          H62   1.079       .  S
N63          N64   1.322       .  A
N63          C67   1.345       .  A
N63         Cu71   2.070       .  S
N64          C65   1.344       .  A
N64         Cu70   2.069       .  S
C65          C66   1.382       .  A
C65          H68   1.082       .  S
C66          C67   1.383       .  A
C66         C360   1.475       .  S
C67          H69   1.082       .  S
Cu70         N73   2.069       .  S
Cu71         N81   2.070       .  S
Cu72         N74   2.073       .  S
Cu72         N80   2.073       .  S
N73          N74   1.322       .  A
N73          C77   1.344       .  A
N74          C75   1.345       .  A
C75          C76   1.383       .  A
C75          H78   1.081       .  S
C76          C77   1.382       .  A
C76         C138   1.470       .  S
C77          H79   1.081       .  S
N80          N81   1.322       .  A
N80          C84   1.344       .  A
N81          C82   1.344       .  A
C82          C83   1.385       .  A
C82          H85   1.082       .  S
C83          C84   1.385       .  A
C83         C340   1.480       .  S
C84          H86   1.082       .  S
O87         Cu95   2.006       .  S
O87          C97   1.278       .  A
O88         Cu95   2.005   1_565  S
O88          C98   1.276       .  A
O89         Cu95   2.006       .  S
O89          C99   1.277       .  A
O90         Cu95   2.013   1_565  S
O90         C100   1.278       .  A
O91         Cu96   2.001       .  S
O91         C100   1.277       .  A
O92         Cu96   2.010       .  S
O92          C99   1.278   1_565  A
O93         Cu96   2.010       .  S
O93          C98   1.277       .  A
O94         Cu96   2.006       .  S
O94          C97   1.277   1_565  A
Cu95        Cu96   2.376   1_545  S
C97         C353   1.474       .  S
C98         C343   1.466       .  S
C99         C390   1.469       .  S
C100        C330   1.477       .  S
N101        N102   1.324       .  A
N101        C105   1.346       .  A
N101       Cu109   2.080       .  S
N102        C103   1.345       .  A
N102       Cu108   2.074       .  S
C103        C104   1.379       .  A
C103        H106   1.082       .  S
C104        C105   1.381       .  A
C104        C383   1.469       .  S
C105        H107   1.082       .  S
Cu108       N111   2.074       .  S
Cu109       N119   2.080       .  S
Cu110       N112   2.069       .  S
Cu110       N118   2.069       .  S
N111        N112   1.321       .  A
N111        C115   1.345       .  A
N112        C113   1.345       .  A
C113        C114   1.383       .  A
C113        H116   1.081       .  S
C114        C115   1.384       .  A
C114        C186   1.472       .  S
C115        H117   1.081       .  S
N118        N119   1.320       .  A
N118        C122   1.342       .  A
N119        C120   1.345       .  A
C120        C121   1.392       .  A
C120        H123   1.082       .  S
C121        C122   1.388       .  A
C121        C333   1.494       .  S
C122        H124   1.078       .  S
N125        N126   1.322       .  A
N125        C129   1.346       .  A
N125       Cu133   2.082       .  S
N126        C127   1.342       .  A
N126       Cu132   2.066       .  S
C127        C128   1.384       .  A
C127        H130   1.080       .  S
C128        C129   1.388       .  A
C128        C320   1.484       .  S
C129        H131   1.082       .  S
Cu132       N135   2.066       .  S
Cu133       N143   2.082       .  S
Cu134       N136   2.068       .  S
Cu134       N142   2.068       .  S
N135        N136   1.321       .  A
N135        C139   1.344       .  A
N136        C137   1.344       .  A
C137        C138   1.383       .  A
C137        H140   1.081       .  S
C138        C139   1.383       .  A
C139        H141   1.081       .  S
N142        N143   1.321       .  A
N142        C146   1.342       .  A
N143        C144   1.345       .  A
C144        C145   1.391       .  A
C144        H147   1.082       .  S
C145        C146   1.387       .  A
C145        C310   1.491       .  S
C146        H148   1.079       .  S
N149        N150   1.319       .  A
N149        C153   1.345       .  A
N149       Cu157   2.080       .  S
N150        C151   1.341       .  A
N150       Cu156   2.067       .  S
C151        C152   1.390       .  A
C151        H154   1.074       .  S
C152        C153   1.395       .  A
C152        C293   1.499       .  S
C153        H155   1.081       .  S
Cu156       N159   2.068       .  S
Cu157       N167   2.080       .  S
Cu158       N160   2.068       .  S
Cu158       N166   2.068       .  S
N159        N160   1.321       .  A
N159        C163   1.344       .  A
N160        C161   1.345       .  A
C161        C162   1.384       .  A
C161        H164   1.081       .  S
C162        C163   1.383       .  A
C163        H165   1.081       .  S
N166        N167   1.324       .  A
N166        C170   1.343       .  A
N167        C168   1.347       .  A
C168        C169   1.383       .  A
C168        H171   1.082       .  S
C169        C170   1.379       .  A
C169        C300   1.470       .  S
C170        H172   1.082       .  S
N173        N174   1.323       .  A
N173        C177   1.345       .  A
N173       Cu181   2.071       .  S
N174        C175   1.344       .  A
N174       Cu180   2.070       .  S
C175        C176   1.380       .  A
C175        H178   1.082       .  S
C176        C177   1.381       .  A
C176        C273   1.468       .  S
C177        H179   1.082       .  S
Cu180       N183   2.070       .  S
Cu181       N191   2.071       .  S
Cu182       N184   2.076       .  S
Cu182       N190   2.076       .  S
N183        N184   1.322       .  A
N183        C187   1.345       .  A
N184        C185   1.346       .  A
C185        C186   1.384       .  A
C185        H188   1.081       .  S
C186        C187   1.382       .  A
C187        H189   1.081       .  S
N190        N191   1.321       .  A
N190        C194   1.344       .  A
N191        C192   1.345       .  A
C192        C193   1.386       .  A
C192        H195   1.081       .  S
C193        C194   1.387       .  A
C193        C280   1.485       .  S
C194        H196   1.082       .  S
O197       Cu205   2.009   1_455  S
O197        C207   1.278   1_556  A
O198       Cu205   2.009       .  S
O198        C208   1.277       .  A
O199       Cu205   2.002   1_455  S
O199        C209   1.277       .  A
O200       Cu205   2.005       .  S
O200        C210   1.277   1_556  A
O201       Cu206   2.009       .  S
O201        C210   1.278       .  A
O202       Cu206   2.009   1_456  S
O202        C209   1.278       .  A
O203       Cu206   2.009   1_556  S
O203        C208   1.278       .  A
O204       Cu206   2.005   1_455  S
O204        C207   1.277       .  A
Cu205      Cu206   2.372   1_556  S
C207        C260   1.471       .  S
C208        C313   1.478       .  S
C209        C270   1.475       .  S
C210        C303   1.482       .  S
O211       Cu219   2.003       .  S
O211        C221   1.276       .  A
O212       Cu219   2.002       .  S
O212        C222   1.275       .  A
O213       Cu219   2.013       .  S
O213        C223   1.280       .  A
O214       Cu219   2.016       .  S
O214        C224   1.280       .  A
O215       Cu220   2.001       .  S
O215        C224   1.275       .  A
O216       Cu220   2.002       .  S
O216        C223   1.275       .  A
O217       Cu220   2.011       .  S
O217        C222   1.279       .  A
O218       Cu220   2.010       .  S
O218        C221   1.279       .  A
Cu219      Cu220   2.363       .  S
C221        C290   1.479       .  S
C222        C283   1.491       .  S
C223        C323   1.490       .  S
C224        C253   1.492       .  S
N225        N226   1.322       .  A
N225        C229   1.345       .  A
N225       Cu233   2.071       .  S
N226        C227   1.344       .  A
N226       Cu232   2.076       .  S
C227        C228   1.386       .  A
C227        H230   1.082       .  S
C228        C229   1.385       .  A
C228        C250   1.482       .  S
C229        H231   1.081       .  S
Cu232       N235   2.076       .  S
Cu233       N243   2.071       .  S
Cu234       N236   2.073       .  S
Cu234       N242   2.074       .  S
N235        N236   1.322       .  A
N235        C239   1.345       .  A
N236        C237   1.346       .  A
C237        C238   1.383       .  A
C237        H240   1.081       .  S
C238        C239   1.384       .  A
C239        H241   1.081       .  S
N242        N243   1.323       .  A
N242        C246   1.345       .  A
N243        C244   1.345       .  A
C244        C245   1.380       .  A
C244        H247   1.082       .  S
C245        C246   1.380       .  A
C245        C263   1.468       .  S
C246        H248   1.082       .  S
C249        C250   1.402       .  A
C249        C254   1.398       .  A
C249        H256   1.084       .  S
C250        C251   1.410       .  A
C251        C252   1.400       .  A
C251       Br258   1.920       .  S
C252        C253   1.409       .  A
C252        H257   1.083       .  S
C253        C254   1.419       .  A
C254       Br255   1.924       .  S
C259        C260   1.403       .  A
C259        C264   1.398       .  A
C259        H266   1.084   1_554  S
C260        C261   1.410       .  A
C261        C262   1.399       .  A
C261       Br268   1.920       .  S
C262        C263   1.401       .  A
C262        H267   1.084       .  S
C263        C264   1.406       .  A
C264       Br265   1.918       .  S
C269        C270   1.404       .  A
C269        C274   1.398       .  A
C269        H276   1.084       .  S
C270        C271   1.413       .  A
C271        C272   1.398       .  A
C271       Br278   1.921       .  S
C272        C273   1.400       .  A
C272        H277   1.084       .  S
C273        C274   1.406       .  A
C274       Br275   1.919       .  S
C279        C280   1.403       .  A
C279        C284   1.398       .  A
C279        H286   1.083       .  S
C280        C281   1.412       .  A
C281        C282   1.399       .  A
C281       Br288   1.920       .  S
C282        C283   1.408       .  A
C282        H287   1.083       .  S
C283        C284   1.418       .  A
C284       Br285   1.924       .  S
C289        C290   1.399       .  A
C289        C294   1.399       .  A
C289        H296   1.083       .  S
C290        C291   1.409       .  A
C291        C292   1.399       .  A
C291       Br298   1.922       .  S
C292        C293   1.411       .  A
C292        H297   1.080       .  S
C293        C294   1.423       .  A
C294       Br295   1.920       .  S
C299        C300   1.399       .  A
C299        C304   1.397       .  A
C299        H306   1.084       .  S
C300        C301   1.405       .  A
C301        C302   1.399       .  A
C301       Br308   1.919       .  S
C302        C303   1.408       .  A
C302        H307   1.083       .  S
C303        C304   1.415       .  A
C304       Br305   1.919   1_554  S
C309        C310   1.407       .  A
C309        C314   1.398       .  A
C309        H316   1.082       .  S
C310        C311   1.418       .  A
C311        C312   1.399       .  A
C311       Br318   1.920       .  S
C312        C313   1.401       .  A
C312        H317   1.084       .  S
C313        C314   1.409       .  A
C314       Br315   1.916       .  S
C319        C320   1.403       .  A
C319        C324   1.400       .  A
C319        H326   1.084       .  S
C320        C321   1.412       .  A
C321        C322   1.397       .  A
C321       Br328   1.921       .  S
C322        C323   1.406       .  A
C322        H327   1.083       .  S
C323        C324   1.419       .  A
C324       Br325   1.923       .  S
C329        C330   1.400       .  A
C329        C334   1.397       .  A
C329        H336   1.083       .  S
C330        C331   1.408       .  A
C331        C332   1.400       .  A
C331       Br338   1.921       .  S
C332        C333   1.409       .  A
C332        H337   1.081       .  S
C333        C334   1.419       .  A
C334       Br335   1.921       .  S
C339        C340   1.405       .  A
C339        C344   1.398       .  A
C339        H346   1.084       .  S
C340        C341   1.414       .  A
C341        C342   1.399       .  A
C341       Br348   1.919       .  S
C342        C343   1.399       .  A
C342        H347   1.084       .  S
C343        C344   1.404       .  A
C344       Br345   1.917       .  S
C349        C350   1.409       .  A
C349        C354   1.400       .  A
C349        H356   1.082       .  S
C350        C351   1.419       .  A
C351        C352   1.398       .  A
C351       Br358   1.920       .  S
C352        C353   1.399       .  A
C352        H357   1.084       .  S
C353        C354   1.408       .  A
C354       Br355   1.921   1_545  S
C359        C360   1.401       .  A
C359        C364   1.398       .  A
C359        H366   1.084       .  S
C360        C361   1.408       .  A
C361        C362   1.398       .  A
C361       Br368   1.920       .  S
C362        C363   1.407       .  A
C362        H367   1.083       .  S
C363        C364   1.416       .  A
C364       Br365   1.922   1_556  S
C369        C370   1.407       .  A
C369        C374   1.400       .  A
C369        H376   1.084   1_545  S
C370        C371   1.415       .  A
C371        C372   1.398       .  A
C371       Br378   1.923       .  S
C372        C373   1.406       .  A
C372        H377   1.083       .  S
C373        C374   1.415       .  A
C374       Br375   1.920       .  S
C379        C380   1.404       .  A
C379        C384   1.400       .  A
C379        H386   1.083       .  S
C380        C381   1.410       .  A
C381        C382   1.399       .  A
C381       Br388   1.920       .  S
C382        C383   1.401       .  A
C382        H387   1.083       .  S
C383        C384   1.406       .  A
C384       Br385   1.918       .  S
C389        C390   1.402       .  A
C389        C394   1.399       .  A
C389        H396   1.084       .  S
C390        C391   1.408       .  A
C391        C392   1.400       .  A
C391       Br398   1.919       .  S
C392        C393   1.401       .  A
C392        H397   1.084       .  S
C393        C394   1.406       .  A
C394       Br395   1.918       .  S
C399        C400   1.401       .  A
C399        C404   1.399       .  A
C399        H406   1.084       .  S
C400        C401   1.407       .  A
C401        C402   1.399       .  A
C401       Br408   1.919       .  S
C402        C403   1.407       .  A
C402        H407   1.083       .  S
C403        C404   1.416       .  A
C404       Br405   1.922   1_554  S
