geometry optimzed in LAMMPS
_audit_creation_date              2020-11-30 
_audit_creation_method            'lammps2cif' 
_symmetry_space_group_name_H-M    'P1' 
_symmetry_Int_Tables_number       1 
_symmetry_cell_setting            triclinic 
loop_ 
_symmetry_equiv_pos_as_xyz 
  x,y,z 
_cell_length_a                    28.71404536 
_cell_length_b                    27.025929644574227 
_cell_length_c                    50.84873057376951 
_cell_angle_alpha                 89.04739513042642 
_cell_angle_beta                  89.52567276269791 
_cell_angle_gamma                 89.28269924318937 
loop_ 
_atom_site_label 
_atom_site_type_symbol 
_atom_site_fract_x 
_atom_site_fract_y 
_atom_site_fract_z 
_atom_site_charge 
O1          O  0.27026809  0.40394475  0.03533342    -0.75400
O2          O  0.22401542  0.35104198  0.01324551    -0.54300
C3          C  0.25646182  0.35998522  0.02946765     0.78300
O4          O  0.11199963  0.57710109  0.05169699    -0.60000
O5          O  0.13396207  0.63533398  0.02137536    -0.53100
C6          C  0.12131203  0.62182169  0.04462917     0.70300
O7          O  0.12636277  0.41615500  0.05519399    -0.74600
O8          O  0.13731408  0.35373427  0.02641013    -0.55200
C9          C  0.13263260  0.37025125  0.04979361     0.76300
O10         O  0.27306255  0.57590750  0.03299858    -0.59700
O11         O  0.22611431  0.63102448  0.01105906    -0.52900
C12         C  0.25922093  0.62049888  0.02696498     0.72900
Zr13       Zr  0.25054768  0.49045547  0.02158327     2.54700
O14         O  0.26234863  0.49150200  0.06895048    -0.80300
O15         O  0.33379506  0.48683186  0.01237834    -0.93700
Zr16       Zr  0.11092094  0.49464446  0.03285305     2.64700
O17         O  0.08806906  0.49293385  0.07919500    -0.98700
O18         O  0.02630793  0.49110810  0.03162280    -0.80700
O19         O  0.18016976  0.44702919  0.02768281    -0.84100
O20         O  0.18164969  0.53819695  0.02718188    -2.18800
O21         O  0.27009582  0.56772612  0.44731623    -0.67500
O22         O  0.22205091  0.62370243  0.46742946    -0.52100
C23         C  0.25600854  0.61251552  0.45214527     0.71300
O24         O  0.11723826  0.40538595  0.42836902    -0.60400
O25         O  0.12667109  0.34471938  0.45938001    -0.52400
C26         C  0.12145089  0.35960351  0.43547895     0.73100
O27         O  0.10788999  0.56861383  0.42795756    -0.71800
O28         O  0.13491806  0.62689832  0.45584069    -0.50500
C29         C  0.11967479  0.61306326  0.43347587     0.74500
O30         O  0.26669729  0.39648295  0.44768248    -0.67100
O31         O  0.21756009  0.34385761  0.46922307    -0.54300
C32         C  0.25171802  0.35277532  0.45362606     0.72900
Zr33       Zr  0.24559603  0.48210517  0.45934889     2.77500
O34         O  0.25244743  0.48393465  0.41148690    -0.97900
O35         O  0.32939037  0.47803246  0.46596992    -0.78700
Zr36       Zr  0.10670270  0.48626006  0.44864410     2.70100
O37         O  0.09061849  0.48766159  0.40168655    -0.79900
O38         O  0.02196641  0.48319522  0.44924989    -0.99000
Zr39       Zr  0.16246480  0.39168404  0.49364768     2.21500
Zr40       Zr  0.16995815  0.58498080  0.98781856     2.11100
O41         O  0.17731243  0.52978320  0.45359503    -2.47700
O42         O  0.17532243  0.43787249  0.45434175    -0.79700
O43         O  0.23684257  0.53033421  0.49785732    -0.71900
O44         O  0.09735815  0.44407813  0.99572641    -2.32900
O45         O  0.23507417  0.43315639  0.49829684    -2.29100
O46         O  0.09797968  0.54385872  0.99428967    -0.73700
H47         H  0.18840096  0.55836440  0.04209163     0.78300
H48         H  0.07170477  0.42169089  0.99837213     0.79400
H49         H  0.18460017  0.54956902  0.43819252     0.81600
H50         H  0.26072545  0.41005170  0.50052541     0.79200
H51         H  0.01569523  0.52444422  0.03705998     0.42300
H52         H  0.01205040  0.50598832  0.43485520     0.41200
H53         H  0.12172783  0.48957812  0.39317925     0.40900
H54         H  0.27234091  0.45508807  0.40695639     0.38800
H55         H  0.34195718  0.46323369  0.44965778     0.42000
H56         H  0.34847746  0.49094263  0.02974509     0.36800
H57         H  0.23094800  0.49807195  0.07641494     0.42900
H58         H  0.11489826  0.50673657  0.08862083     0.39300
H59         H  0.22103828  0.47522774  0.40526924     0.44200
H60         H  0.34033379  0.51808304  0.00268141     0.42900
H61         H  0.06292680  0.51808541  0.08101073     0.43100
H62         H  0.01462903  0.44979042  0.44287205     0.43400
O63         O  0.82347434  0.41711458  0.04983796    -0.75400
O64         O  0.78266988  0.34111830  0.53227190    -0.54300
C65         C  0.81231366  0.37130816  0.04882783     0.78300
O66         O  0.68164106  0.57858551  0.04440948    -0.60000
O67         O  0.71799704  0.62949056  0.01469946    -0.53100
C68         C  0.69343475  0.62183175  0.03546239     0.70300
O69         O  0.67277253  0.40781364  0.05016799    -0.74600
O70         O  0.69932397  0.34026481  0.51761276    -0.55200
C71         C  0.68356644  0.36259161  0.04429058     0.76300
O72         O  0.84437471  0.57066655  0.03621730    -0.59700
O73         O  0.80767909  0.62848398  0.01036303    -0.52900
C74         C  0.83088870  0.61524927  0.03086056     0.72900
Zr75       Zr  0.83359599  0.48688546  0.02005074     2.54700
O76         O  0.88648494  0.50089552  0.05638805    -0.80300
O77         O  0.91143698  0.45911369  0.00715555    -0.93700
Zr78       Zr  0.69506626  0.49094118  0.03275123     2.64700
O79         O  0.70933346  0.49177550  0.07988013    -0.98700
O80         O  0.61108945  0.49964699  0.03837661    -0.80700
O81         O  0.76304592  0.44989281  0.02406169    -0.84100
O82         O  0.76454975  0.53491492  0.02499743    -2.18800
O83         O  0.84590837  0.54334587  0.42828341    -0.67500
O84         O  0.80667086  0.60842080  0.44632223    -0.52100
C85         C  0.83000641  0.58807651  0.42734556     0.71300
O86         O  0.68135824  0.38889933  0.43066350    -0.60400
O87         O  0.71099821  0.33691559  0.46226589    -0.52400
C88         C  0.68970679  0.34530602  0.44059920     0.73100
O89         O  0.67524169  0.56149954  0.42890859    -0.71800
O90         O  0.71746418  0.61583520  0.45257127    -0.50500
C91         C  0.68804208  0.60592321  0.43486550     0.74500
O92         O  0.82271858  0.39077165  0.43311901    -0.67100
O93         O  0.79864325  0.33133190  0.46188578    -0.54300
C94         C  0.81110170  0.34602439  0.43873847     0.72900
Zr95       Zr  0.83582107  0.46866762  0.45504406     2.77500
O96         O  0.89212991  0.44931672  0.42041221    -0.97900
O97         O  0.91384525  0.46349274  0.47329182    -0.78700
Zr98       Zr  0.69504795  0.47501348  0.44427053     2.70100
O99         O  0.70645652  0.47193573  0.39680340    -0.79900
O100        O  0.61045244  0.47391155  0.44126926    -0.99000
Zr101      Zr  0.75532367  0.38363196  0.49232134     2.21500
Zr102      Zr  0.76190451  0.57008107  0.48318171     2.11100
O103        O  0.76654944  0.51630893  0.44675900    -2.47700
O104        O  0.76388349  0.42752045  0.45218701    -0.79700
O105        O  0.83201420  0.52448400  0.49079183    -0.71900
O106        O  0.68472653  0.43000807  0.48444257    -2.32900
O107        O  0.82863216  0.42340770  0.49551553    -2.29100
O108        O  0.68871229  0.52789644  0.48086835    -0.73700
H109        H  0.76584288  0.55619840  0.03994983     0.78300
H110        H  0.65800693  0.40888086  0.48315746     0.79400
H111        H  0.76573860  0.53255735  0.42980284     0.81600
H112        H  0.85383138  0.40008194  0.49860903     0.79200
H113        H  0.60703944  0.51403380  0.05605228     0.42300
H114        H  0.60058174  0.44707474  0.45348919     0.41200
H115        H  0.73960232  0.46223221  0.39452279     0.40900
H116        H  0.87550626  0.45633382  0.40375368     0.38800
H117        H  0.92531612  0.49787682  0.47217067     0.42000
H118        H  0.92162586  0.43655428  0.02161155     0.36800
H119        H  0.86704238  0.49777049  0.07248262     0.42900
H120        H  0.73111131  0.46371505  0.08303176     0.39300
H121        H  0.91603655  0.47532048  0.42120388     0.44200
H122        H  0.93114804  0.48867026  0.00878570     0.42900
H123        H  0.72831763  0.52157125  0.08259943     0.43100
H124        H  0.59993944  0.50471141  0.44990579     0.43400
O125        O  0.38379529  0.09940866  0.13735488    -0.75400
O126        O  0.33677076  0.04708541  0.11529931    -0.54300
C127        C  0.34318730  0.08364738  0.13035735     0.78300
O128        O  0.55286810  0.09467167  0.04921269    -0.60000
O129        O  0.60745500  0.05425408  0.07401960    -0.53100
C130        C  0.59339203  0.09133420  0.05972991     0.70300
O131        O  0.40422539  0.09741242  0.05140330    -0.74600
O132        O  0.34377161  0.05042013  0.06537782    -0.55200
C133        C  0.36069240  0.09105611  0.05609418     0.76300
O134        O  0.54781313  0.09874505  0.14460959    -0.59700
O135        O  0.60195071  0.05000367  0.12399690    -0.52900
C136        C  0.59044723  0.08513691  0.13924550     0.72900
Zr137      Zr  0.46754107  0.07667598  0.12969943     2.54700
O138        O  0.46973942  0.16306611  0.11531239    -0.80300
O139        O  0.46256658  0.10153761  0.17546061    -0.93700
Zr140      Zr  0.47819730  0.05314585  0.05159949     2.64700
O141        O  0.48234635  0.12557902  0.02244646    -0.98700
O142        O  0.47773422  0.02267752  0.00691534    -0.80700
O143        O  0.42980642  0.06385631  0.08907721    -0.84100
O144        O  0.51540531  0.06583470  0.09249021    -2.18800
O145        O  0.54823245  0.92002564  0.16235223    -0.67500
O146        O  0.60155274  0.95407749  0.13415166    -0.52100
C147        C  0.59056915  0.93106508  0.15541219     0.71300
O148        O  0.40644231  0.86866529  0.06522553    -0.60400
O149        O  0.34628936  0.92260657  0.07141683    -0.52400
C150        C  0.36295068  0.87933855  0.06622716     0.73100
O151        O  0.55598098  0.87265893  0.06599458    -0.71800
O152        O  0.61005789  0.92716794  0.07973600    -0.50500
C153        C  0.59783572  0.88453534  0.07132151     0.74500
O154        O  0.38567603  0.91813658  0.15680200    -0.67100
O155        O  0.33743093  0.94974347  0.12519237    -0.54300
C156        C  0.34458155  0.92801071  0.14739950     0.72900
Zr157      Zr  0.46862296  0.93176591  0.14340070     2.77500
O158        O  0.46849731  0.84276634  0.15161134    -0.97900
O159        O  0.45953019  0.94705287  0.19022011    -0.78700
Zr160      Zr  0.47978910  0.91022754  0.06489974     2.70100
O161        O  0.48314864  0.82255999  0.05415360    -0.79900
O162        O  0.48458247  0.91856440  0.01718058    -0.99000
Zr163      Zr  0.38569891  0.99033128  0.09307875     2.21500
Zr164      Zr  0.56130166  0.99295632  0.09875149     2.11100
O165        O  0.51757962  0.91965765  0.10596514    -2.47700
O166        O  0.43086253  0.91825029  0.10260127    -0.79700
O167        O  0.51345188  0.00425654  0.13725741    -0.71900
O168        O  0.43236380  0.98039125  0.05457221    -2.32900
O169        O  0.42328860  0.00357750  0.13442820    -2.29100
O170        O  0.52599498  0.98149681  0.05748354    -0.73700
H171        H  0.53290237  0.09590117  0.09319568     0.78300
H172        H  0.41356815  0.97575536  0.03914136     0.79400
H173        H  0.53740563  0.89173767  0.11043011     0.81600
H174        H  0.40114546  0.00827782  0.14855752     0.79200
H175        H  0.51061101  0.02461346  0.00099651     0.42300
H176        H  0.51712382  0.90918083  0.01274517     0.41200
H177        H  0.46956840  0.81983328  0.03641602     0.40900
H178        H  0.48296524  0.82840853  0.13568532     0.38800
H179        H  0.47054374  0.98130324  0.19238047     0.42000
H180        H  0.43427905  0.08531900  0.18253014     0.36800
H181        H  0.46798078  0.16208219  0.09588297     0.42900
H182        H  0.45399020  0.12474615  0.01153715     0.39300
H183        H  0.49184131  0.83715429  0.16560593     0.44200
H184        H  0.45425002  0.13719950  0.17455170     0.42900
H185        H  0.47736560  0.15424454  0.03407363     0.43100
H186        H  0.46555225  0.89154738  0.01022673     0.43400
O187        O  0.40101713  0.09869182  0.42023487    -0.75400
O188        O  0.34136414  0.04882827  0.40919746    -0.54300
C189        C  0.35772341  0.09009291  0.41726238     0.78300
O190        O  0.55054802  0.05011674  0.32047398    -0.60000
O191        O  0.60211270  0.01248113  0.34843213    -0.53100
C192        C  0.59254442  0.03715363  0.32751766     0.70300
O193        O  0.38681188  0.05553702  0.32405408    -0.74600
O194        O  0.33721370  0.02313355  0.35485933    -0.55200
C195        C  0.34528912  0.04584183  0.33305260     0.76300
O196        O  0.55196973  0.09317287  0.41913006    -0.59700
O197        O  0.60614092  0.04107175  0.40121965    -0.52900
C198        C  0.59354167  0.08218506  0.41183313     0.72900
Zr199      Zr  0.47543509  0.05850165  0.41708376     2.54700
O200        O  0.48101882  0.14779962  0.42142974    -0.80300
O201        O  0.47347217  0.05711239  0.46486714    -0.93700
Zr202      Zr  0.46925099  0.04074926  0.33860520     2.64700
O203        O  0.47014067  0.13087110  0.33749166    -0.98700
O204        O  0.46457688  0.03920306  0.29085617    -0.80700
O205        O  0.42836413  0.05281826  0.37904243    -0.84100
O206        O  0.51582114  0.04918584  0.37653520    -2.18800
O207        O  0.54863593  0.87363708  0.43226168    -0.67500
O208        O  0.60481922  0.91587606  0.40984252    -0.52100
C209        C  0.59021451  0.87811997  0.42318504     0.71300
O210        O  0.38391049  0.87273850  0.34189355    -0.60400
O211        O  0.33561095  0.92557236  0.36397831    -0.52400
C212        C  0.34276454  0.88905703  0.34873123     0.73100
O213        O  0.54786087  0.86918007  0.33665192    -0.71800
O214        O  0.60120296  0.91458158  0.35857402    -0.50500
C215        C  0.59031093  0.88050514  0.34271427     0.74500
O216        O  0.40169544  0.87162315  0.42821061    -0.67100
O217        O  0.34129921  0.91908268  0.41359252    -0.54300
C218        C  0.35845958  0.87814928  0.42283486     0.72900
Zr219      Zr  0.47414766  0.91604431  0.42905334     2.77500
O220        O  0.47873753  0.84535854  0.45939825    -0.97900
O221        O  0.47129964  0.94898421  0.47314619    -0.78700
Zr222      Zr  0.46708514  0.89489686  0.35039821     2.70100
O223        O  0.46611652  0.80727063  0.36222430    -0.79900
O224        O  0.46137331  0.88000839  0.30344236    -0.99000
Zr225      Zr  0.38311316  0.98109289  0.38727975     2.21500
Zr226      Zr  0.55935726  0.97464902  0.38300845     2.11100
O227        O  0.51332034  0.90281922  0.38830674    -2.47700
O228        O  0.42800850  0.90729605  0.39101758    -0.79700
O229        O  0.52201103  0.98639316  0.42411565    -0.71900
O230        O  0.42348352  0.96941756  0.34621676    -2.32900
O231        O  0.42764968  0.98918554  0.42624061    -2.29100
O232        O  0.51353607  0.96634180  0.34397930    -0.73700
H233        H  0.53585896  0.07689279  0.37284203     0.78300
H234        H  0.40222496  0.96553569  0.33181113     0.79400
H235        H  0.53127613  0.87249825  0.38797726     0.81600
H236        H  0.40799051  0.99369956  0.44154244     0.79200
H237        H  0.46626268  0.00361969  0.28658384     0.42300
H238        H  0.47999017  0.90656945  0.29501855     0.41200
H239        H  0.48561295  0.79113304  0.34861784     0.40900
H240        H  0.44905705  0.84576275  0.46942681     0.38800
H241        H  0.50432859  0.95404774  0.47773908     0.42000
H242        H  0.45378940  0.08608309  0.46945830     0.36800
H243        H  0.47923519  0.16089455  0.40314886     0.42900
H244        H  0.50304906  0.13952159  0.34051254     0.39300
H245        H  0.47673001  0.81592325  0.44813615     0.44200
H246        H  0.50529039  0.06632912  0.47011132     0.42900
H247        H  0.46467145  0.13992893  0.31881516     0.43100
H248        H  0.47984676  0.84936376  0.30056874     0.43400
O249        O  0.04764904  0.13703598  0.17701778    -0.75400
O250        O  0.09786874  0.17012576  0.20617139    -0.54300
C251        C  0.08908870  0.14752252  0.18491851     0.78300
O252        O  0.89051179  0.31287925  0.19086400    -0.60000
O253        O  0.83479881  0.26728331  0.21184591    -0.53100
C254        C  0.84857125  0.29786375  0.19391534     0.70300
O255        O  0.04230599  0.29693176  0.18549526    -0.74600
O256        O  0.10013234  0.26493929  0.21117131    -0.55200
C257        C  0.08518528  0.28589936  0.19000387     0.76300
O258        O  0.88577765  0.13528431  0.17982511    -0.59700
O259        O  0.83646049  0.17038414  0.20966036    -0.52900
C260        C  0.84446027  0.14578888  0.18888958     0.72900
Zr261      Zr  0.96741391  0.15064102  0.19421562     2.54700
O262        O  0.96526667  0.16781259  0.14706338    -0.80300
O263        O  0.96954856  0.06144683  0.18791888    -0.93700
Zr264      Zr  0.96782140  0.29784681  0.20849560     2.64700
O265        O  0.97033509  0.34727675  0.16784747    -0.98700
O266        O  0.97420241  0.38113800  0.22562932    -0.80700
O267        O  0.01039691  0.22369416  0.20130610    -0.84100
O268        O  0.92474557  0.22483189  0.20099389    -2.18800
O269        O  0.88654627  0.09657276  0.28125977    -0.67500
O270        O  0.83631499  0.15058904  0.26104843    -0.52100
C271        C  0.84495596  0.11195114  0.27501414     0.71300
O272        O  0.04062027  0.25453465  0.30643793    -0.60400
O273        O  0.09898552  0.24439313  0.27655809    -0.52400
C274        C  0.08382873  0.25138185  0.30015354     0.73100
O275        O  0.89100460  0.27404577  0.30413772    -0.71800
O276        O  0.83479374  0.24885919  0.27621546    -0.50500
C277        C  0.84858091  0.26516194  0.29841539     0.74500
O278        O  0.05032744  0.09860239  0.28327109    -0.67100
O279        O  0.10068860  0.14878521  0.26091697    -0.54300
C280        C  0.09203013  0.11284873  0.27674481     0.72900
Zr281      Zr  0.96827128  0.12255731  0.27157859     2.77500
O282        O  0.96702364  0.10543756  0.31872502    -0.97900
O283        O  0.96693933  0.03474497  0.26175960    -0.78700
Zr284      Zr  0.96774890  0.26967423  0.28447544     2.70100
O285        O  0.96563075  0.28898097  0.33111850    -0.79900
O286        O  0.97850188  0.35894537  0.28373870    -0.99000
Zr287      Zr  0.05512173  0.21098767  0.23980491     2.21500
Zr288      Zr  0.88082230  0.21352718  0.24047379     2.11100
O289        O  0.92454143  0.19620713  0.27906551    -2.47700
O290        O  0.01109892  0.19563915  0.27849570    -0.79700
O291        O  0.92294638  0.13799658  0.23328630    -0.71900
O292        O  0.01428636  0.28673608  0.24663494    -2.32900
O293        O  0.01304925  0.13632807  0.23265637    -2.29100
O294        O  0.92125281  0.28822822  0.24709750    -0.73700
H295        H  0.90572830  0.22786848  0.18550411     0.78300
H296        H  0.03552070  0.31372740  0.24906937     0.79400
H297        H  0.90495517  0.18905998  0.29411900     0.81600
H298        H  0.03411174  0.10872165  0.22990377     0.79200
H299        H  0.98689327  0.40134940  0.21088807     0.42300
H300        H  0.95920222  0.37119351  0.29854352     0.41200
H301        H  0.95714776  0.25753093  0.34011534     0.40900
H302        H  0.98334698  0.07313289  0.32079878     0.38800
H303        H  0.99759712  0.02771512  0.25350982     0.42000
H304        H  0.93690582  0.05083200  0.19038471     0.36800
H305        H  0.99065550  0.19167168  0.14380666     0.42900
H306        H  0.95773822  0.32555229  0.15418451     0.39300
H307        H  0.98869822  0.12972752  0.32609212     0.44200
H308        H  0.98598342  0.04780928  0.20351262     0.42900
H309        H  0.94666161  0.37393948  0.16984480     0.43100
H310        H  0.01100845  0.36335684  0.28953599     0.43400
O311        O  0.05414300  0.75506162  0.17386709    -0.75400
O312        O  0.10960636  0.73578002  0.20285434    -0.54300
C313        C  0.09577178  0.74121281  0.17904933     0.78300
O314        O  0.88392424  0.87600591  0.20383558    -0.60000
O315        O  0.83688934  0.81396500  0.21873128    -0.53100
C316        C  0.84317735  0.85657573  0.20811886     0.70300
O317        O  0.04988825  0.88252362  0.20035908    -0.74600
O318        O  0.10320340  0.83484657  0.22253454    -0.55200
C319        C  0.09238464  0.87084333  0.20714198     0.76300
O320        O  0.91200038  0.70629426  0.16769487    -0.59700
O321        O  0.84930645  0.71911240  0.19441105    -0.52900
C322        C  0.86817139  0.70946139  0.17179923     0.72900
Zr323      Zr  0.98481966  0.71345955  0.18935582     2.54700
O324        O  0.99099406  0.70720202  0.14169255    -0.80300
O325        O  0.00840570  0.62875405  0.17983915    -0.93700
Zr326      Zr  0.96849755  0.85410445  0.21105536     2.64700
O327        O  0.96659849  0.87962389  0.16488616    -0.98700
O328        O  0.96287606  0.94024083  0.22409628    -0.80700
O329        O  0.02018358  0.78795666  0.20118122    -0.84100
O330        O  0.93201741  0.77969554  0.19856003    -2.18800
O331        O  0.90575612  0.64246560  0.27994365    -0.67500
O332        O  0.84611724  0.68791372  0.26221331    -0.52100
C333        C  0.86268081  0.65536459  0.27857369     0.71300
O334        O  0.04691049  0.82481996  0.30460991    -0.60400
O335        O  0.10204345  0.80351153  0.27420105    -0.52400
C336        C  0.08995779  0.82024538  0.29657891     0.73100
O337        O  0.88381093  0.81793052  0.29845573    -0.71800
O338        O  0.83697504  0.78386539  0.26771540    -0.50500
C339        C  0.84327715  0.80665090  0.28922417     0.74500
O340        O  0.04722873  0.67546284  0.29134351    -0.67100
O341        O  0.10672596  0.71363750  0.26990878    -0.54300
C342        C  0.08915060  0.69132531  0.29006554     0.72900
Zr343      Zr  0.98102743  0.66748500  0.26253277     2.77500
O344        O  0.98531312  0.59896052  0.29443681    -0.97900
O345        O  0.00265384  0.59361070  0.23818994    -0.78700
Zr346      Zr  0.96767318  0.80890221  0.28557629     2.70100
O347        O  0.96344790  0.78661294  0.33211575    -0.79900
O348        O  0.96021730  0.89735855  0.29350680    -0.99000
Zr349      Zr  0.06242860  0.76586897  0.23950222     2.21500
Zr350      Zr  0.88669722  0.74977820  0.23486862     2.11100
O351        O  0.93044775  0.73429667  0.27408163    -2.47700
O352        O  0.01031934  0.74346127  0.27055232    -0.79700
O353        O  0.93624791  0.68178600  0.22400129    -0.71900
O354        O  0.01361806  0.83611962  0.24932474    -2.32900
O355        O  0.03015255  0.68939493  0.22649222    -2.29100
O356        O  0.92274914  0.82578925  0.24733433    -0.73700
H357        H  0.91296580  0.78878409  0.18367231     0.78300
H358        H  0.03188941  0.86438516  0.25393475     0.79400
H359        H  0.91166151  0.72727253  0.28933349     0.81600
H360        H  0.05398358  0.66494838  0.22264923     0.79200
H361        H  0.93188740  0.94339185  0.23263592     0.42300
H362        H  0.98771598  0.91250907  0.28488893     0.41200
H363        H  0.97323052  0.75138041  0.33295469     0.40900
H364        H  0.96580880  0.57257518  0.28714803     0.38800
H365        H  0.97447268  0.58554442  0.22811168     0.42000
H366        H  0.03495599  0.63199761  0.16740011     0.36800
H367        H  0.98738368  0.74167227  0.13502327     0.42900
H368        H  0.98709691  0.85534933  0.15591557     0.39300
H369        H  0.01746995  0.58557383  0.29297939     0.44200
H370        H  0.98273501  0.61590519  0.16910152     0.42900
H371        H  0.93486549  0.87169572  0.15891436     0.43100
H372        H  0.93354536  0.90845429  0.28258991     0.43400
C373        C  0.63114279  0.85489140  0.33067841    -0.05400
C374        C  0.62973618  0.83659906  0.30506221    -0.05300
C375        C  0.67105157  0.82229505  0.29219423    -0.23500
C376        C  0.71435180  0.82615862  0.30475587     0.18700
C377        C  0.71595671  0.84221820  0.33092936     0.16000
C378        C  0.67443088  0.85576606  0.34378437    -0.18500
C379        C  0.75919186  0.84615108  0.34349936    -0.20300
C380        C  0.80075179  0.83515188  0.33004764    -0.12900
C381        C  0.79979623  0.81976941  0.30384126     0.03800
C382        C  0.75610069  0.81509300  0.29143619    -0.25000
H383        H  0.59714603  0.83583288  0.29451999     0.08900
H384        H  0.66930417  0.80974854  0.27210109     0.12500
H385        H  0.67612057  0.86923896  0.36372437     0.12400
H386        H  0.76088448  0.85826222  0.36367207     0.12100
H387        H  0.83355480  0.83842012  0.34018775     0.12700
H388        H  0.75437106  0.80326690  0.27120857     0.14600
C389        C  0.29931787  0.86619452  0.33864319    -0.05400
C390        C  0.30045204  0.82538920  0.32191752    -0.05300
C391        C  0.25890784  0.80617212  0.31217394    -0.23500
C392        C  0.21549387  0.82761527  0.31881162     0.18700
C393        C  0.21359764  0.86801734  0.33585714     0.16000
C394        C  0.25527824  0.88677795  0.34571356    -0.18500
C395        C  0.17009566  0.88970598  0.34225734    -0.20300
C396        C  0.12884035  0.87280428  0.33089171    -0.12900
C397        C  0.13050860  0.83376308  0.31307481     0.03800
C398        C  0.17409408  0.81039918  0.30794631    -0.25000
H399        H  0.33336717  0.80863790  0.31617830     0.08900
H400        H  0.26077202  0.77501641  0.29904956     0.12500
H401        H  0.25314300  0.91827363  0.35859674     0.12400
H402        H  0.16816688  0.92078598  0.35542590     0.12100
H403        H  0.09617139  0.89162411  0.33507874     0.12700
H404        H  0.17616601  0.77971803  0.29450043     0.14600
C405        C  0.80265055  0.08560450  0.28454470    -0.05400
C406        C  0.80476701  0.04902216  0.30438543    -0.05300
C407        C  0.76365158  0.02980496  0.31528590    -0.23500
C408        C  0.71982448  0.04717520  0.30664879     0.18700
C409        C  0.71714241  0.08206448  0.28588977     0.16000
C410        C  0.75840144  0.10053687  0.27480835    -0.18500
C411        C  0.67326142  0.09930412  0.27724760    -0.20300
C412        C  0.63224468  0.08390873  0.29001069    -0.12900
C413        C  0.63448157  0.05076441  0.31149819     0.03800
C414        C  0.67871762  0.03149556  0.31906306    -0.25000
H415        H  0.83801825  0.03655840  0.31209858     0.08900
H416        H  0.76612061  0.00251403  0.33108242     0.12500
H417        H  0.75573192  0.12818390  0.25919968     0.12400
H418        H  0.67075253  0.12587346  0.26112010     0.12100
H419        H  0.59905134  0.09893565  0.28355621     0.12700
H420        H  0.68163755  0.00514452  0.33528568     0.14600
C421        C  0.30264050  0.05972639  0.31774609    -0.05400
C422        C  0.30487179  0.08682632  0.29397835    -0.05300
C423        C  0.26393275  0.09981609  0.28046856    -0.23500
C424        C  0.22002036  0.08591910  0.29046113     0.18700
C425        C  0.21721745  0.05766251  0.31388386     0.16000
C426        C  0.25830887  0.04463556  0.32722842    -0.18500
C427        C  0.17329416  0.04369639  0.32385653    -0.20300
C428        C  0.13223117  0.05939055  0.31127008    -0.12900
C429        C  0.13442013  0.08898942  0.28837779     0.03800
C430        C  0.17883495  0.10087931  0.27777915    -0.25000
H431        H  0.33813425  0.09837812  0.28596918     0.08900
H432        H  0.26657366  0.12133371  0.26235587     0.12500
H433        H  0.25541327  0.02298592  0.34528442     0.12400
H434        H  0.17067335  0.02169754  0.34180411     0.12100
H435        H  0.09889445  0.04986693  0.31994780     0.12700
H436        H  0.18158744  0.12333241  0.25998121     0.14600
C437        C  0.63121641  0.91676868  0.17202395    -0.05400
C438        C  0.62954323  0.87742214  0.19032627    -0.05300
C439        C  0.67049180  0.86031709  0.20258906    -0.23500
C440        C  0.71374827  0.88212516  0.19660930     0.18700
C441        C  0.71550299  0.92295686  0.17911326     0.16000
C442        C  0.67434900  0.94037511  0.16731762    -0.18500
C443        C  0.75863676  0.94460990  0.17292405    -0.20300
C444        C  0.80016975  0.92462734  0.18312619    -0.12900
C445        C  0.79934152  0.88279356  0.19983216     0.03800
C446        C  0.75545920  0.86276138  0.20707338    -0.25000
H447        H  0.59708154  0.85865813  0.19433715     0.08900
H448        H  0.66857446  0.82898876  0.21611206     0.12500
H449        H  0.67638957  0.97143728  0.15359464     0.12400
H450        H  0.76038585  0.97618083  0.15954373     0.12100
H451        H  0.83298166  0.94090990  0.17724125     0.12700
H452        H  0.75365230  0.83078657  0.22017208     0.14600
C453        C  0.13361981  0.89659249  0.19555152    -0.05400
C454        C  0.13123876  0.92049523  0.17091015    -0.05300
C455        C  0.17217354  0.93278803  0.15714047    -0.23500
C456        C  0.21622771  0.92085433  0.16762498     0.18700
C457        C  0.21924977  0.89941575  0.19297622     0.16000
C458        C  0.17809799  0.88840349  0.20694754    -0.18500
C459        C  0.26330627  0.88741200  0.20343366    -0.20300
C460        C  0.30407684  0.89570990  0.18864619    -0.12900
C461        C  0.30165905  0.91632400  0.16312884     0.03800
C462        C  0.25719883  0.92909420  0.15294068    -0.25000
H463        H  0.09790287  0.92697058  0.16158323     0.08900
H464        H  0.16934670  0.94978577  0.13776469     0.12500
H465        H  0.18088339  0.87046261  0.22611591     0.12400
H466        H  0.26621021  0.87105297  0.22296261     0.12100
H467        H  0.33745686  0.88620218  0.19723715     0.12700
H468        H  0.25418724  0.94553770  0.13343779     0.14600
C469        C  0.63116268  0.10914427  0.15104138    -0.05400
C470        C  0.63131027  0.12249485  0.17752171    -0.05300
C471        C  0.67355586  0.13205788  0.18995345    -0.23500
C472        C  0.71604454  0.12811500  0.17606512     0.18700
C473        C  0.71609413  0.11769183  0.14906343     0.16000
C474        C  0.67365001  0.10902001  0.13668478    -0.18500
C475        C  0.75865947  0.11437343  0.13517159    -0.20300
C476        C  0.80108588  0.12127511  0.14805997    -0.12900
C477        C  0.80144807  0.13136787  0.17502299     0.03800
C478        C  0.75847388  0.13407454  0.18883615    -0.25000
H479        H  0.59933832  0.12239369  0.18896802     0.08900
H480        H  0.67317342  0.14073585  0.21067692     0.12500
H481        H  0.67394315  0.09913339  0.11610215     0.12400
H482        H  0.75908143  0.10666246  0.11432545     0.12100
H483        H  0.83331331  0.12005258  0.13686548     0.12700
H484        H  0.75777865  0.14174456  0.20968697     0.14600
C485        C  0.29957733  0.10662821  0.14060005    -0.05400
C486        C  0.30027720  0.14143785  0.16069638    -0.05300
C487        C  0.25860446  0.15801562  0.17212941    -0.23500
C488        C  0.21566132  0.13970335  0.16380313     0.18700
C489        C  0.21415135  0.10584380  0.14313662     0.16000
C490        C  0.25598610  0.09006472  0.13144959    -0.18500
C491        C  0.17096858  0.08732483  0.13509261    -0.20300
C492        C  0.12962960  0.10127114  0.14807306    -0.12900
C493        C  0.13104382  0.13400470  0.16918978     0.03800
C494        C  0.17435476  0.15384585  0.17638119    -0.25000
H495        H  0.33299449  0.15473571  0.16810298     0.08900
H496        H  0.26002836  0.18418244  0.18801039     0.12500
H497        H  0.25442044  0.06346138  0.11577086     0.12400
H498        H  0.16930979  0.06127635  0.11916441     0.12100
H499        H  0.09692462  0.08572694  0.14200256     0.12700
H500        H  0.17639206  0.17989383  0.19229805     0.14600
C501        C  0.67790561  0.66668812  0.04953816    -0.05400
C502        C  0.64215811  0.66427190  0.06844480    -0.05300
C503        C  0.62373693  0.70756169  0.07917387    -0.23500
C504        C  0.64065255  0.75388752  0.07105468     0.18700
C505        C  0.67837383  0.75687681  0.05320120     0.16000
C506        C  0.69719834  0.71317211  0.04283172    -0.18500
C507        C  0.69460154  0.80361259  0.04487331    -0.20300
C508        C  0.67104742  0.84691775  0.05253251    -0.12900
C509        C  0.63169186  0.84362096  0.06888940     0.03800
C510        C  0.61829035  0.79724721  0.07913423    -0.25000
H511        H  0.62711652  0.62911497  0.07415494     0.08900
H512        H  0.59489068  0.70491776  0.09298022     0.12500
H513        H  0.72549705  0.71565570  0.02864268     0.12400
H514        H  0.72371698  0.80649982  0.03126715     0.12100
H515        H  0.68150585  0.88232737  0.04430554     0.12700
H516        H  0.58783013  0.79472957  0.09184670     0.14600
C517        C  0.62013622  0.13792752  0.05941152    -0.05400
C518        C  0.66892761  0.13918962  0.06005985    -0.05300
C519        C  0.69177709  0.18481244  0.06079998    -0.23500
C520        C  0.66603945  0.22952071  0.06153268     0.18700
C521        C  0.61705091  0.22833763  0.06241882     0.16000
C522        C  0.59462611  0.18280505  0.06123670    -0.22100
C523        C  0.59116710  0.27282054  0.06351883    -0.20300
C524        C  0.61351179  0.31844159  0.06114793    -0.12900
C525        C  0.66195279  0.31992865  0.05786774     0.03800
C526        C  0.68817667  0.27540937  0.05981336    -0.25000
H527        H  0.68921357  0.10516798  0.05960670     0.08900
H528        H  0.72950907  0.18520803  0.06042017     0.12500
H529        H  0.55687242  0.18236262  0.06193347     0.12400
H530        H  0.55346819  0.27225739  0.06456234     0.12100
H531        H  0.59267725  0.35200523  0.05937058     0.12700
H532        H  0.72567780  0.27629829  0.05727234     0.14600
C533        C  0.61846623  0.83221745  0.42394414    -0.05400
C534        C  0.66659049  0.83144116  0.42813610    -0.05300
C535        C  0.69122731  0.78627856  0.42782263    -0.23500
C536        C  0.66801701  0.74174176  0.42288212     0.18700
C537        C  0.61996337  0.74264144  0.41767721     0.16000
C538        C  0.59567351  0.78773394  0.41824304    -0.18500
C539        C  0.59664888  0.69823061  0.41285877    -0.20300
C540        C  0.61993075  0.65257136  0.41556276    -0.12900
C541        C  0.66696522  0.65099299  0.42263490     0.03800
C542        C  0.69142443  0.69605347  0.42445944    -0.25000
H543        H  0.68479336  0.86536856  0.43202310     0.08900
H544        H  0.72822932  0.78603101  0.43183531     0.12500
H545        H  0.55865216  0.78822118  0.41413858     0.12400
H546        H  0.55975886  0.69867370  0.40852951     0.12100
H547        H  0.60036097  0.61873607  0.41417540     0.12700
H548        H  0.72806654  0.69548345  0.42949509     0.14600
C549        C  0.67430222  0.30033327  0.42697360    -0.05400
C550        C  0.63974450  0.30220796  0.40763015    -0.05300
C551        C  0.62108085  0.25831591  0.39819402    -0.23500
C552        C  0.63644502  0.21215498  0.40820872     0.18700
C553        C  0.67320803  0.20984411  0.42638942     0.16000
C554        C  0.69246504  0.25378629  0.43515989    -0.18500
C555        C  0.68804306  0.16380226  0.43685261    -0.20300
C556        C  0.66440755  0.12054776  0.43071925    -0.12900
C557        C  0.62639855  0.12303079  0.41371991     0.03800
C558        C  0.61371375  0.16855355  0.40174359    -0.25000
H559        H  0.62571213  0.33740563  0.40071253     0.08900
H560        H  0.59312397  0.26052343  0.38402322     0.12500
H561        H  0.72010570  0.25152878  0.44954159     0.12400
H562        H  0.71623116  0.16164684  0.45087690     0.12100
H563        H  0.67394774  0.08592442  0.44038924     0.12700
H564        H  0.58393635  0.17039221  0.38874237     0.14600
C565        C  0.83092408  0.61185670  0.40056125    -0.05400
C566        C  0.82575189  0.66308733  0.39607575    -0.05300
C567        C  0.82356366  0.68247310  0.37017412    -0.23500
C568        C  0.82525582  0.65084660  0.34836817     0.18700
C569        C  0.82770503  0.59929349  0.35280137     0.16000
C570        C  0.83089168  0.58043159  0.37857118    -0.18500
C571        C  0.82879865  0.56721030  0.33134688    -0.20300
C572        C  0.83257492  0.58606154  0.30566977    -0.12900
C573        C  0.83430956  0.63725563  0.30094091     0.03800
C574        C  0.82764596  0.66956450  0.32229444    -0.25000
H575        H  0.82383606  0.68803977  0.41249776     0.08900
H576        H  0.82106229  0.72220418  0.36718179     0.12500
H577        H  0.83275513  0.54061382  0.38142822     0.12400
H578        H  0.83009258  0.52746573  0.33451480     0.12100
H579        H  0.83883996  0.56063895  0.28973514     0.12700
H580        H  0.83021225  0.70916050  0.31894405     0.14600
C581        C  0.83430403  0.64998983  0.05264379    -0.05400
C582        C  0.86828670  0.68651903  0.05328544    -0.05300
C583        C  0.87570058  0.71213144  0.07659462    -0.23500
C584        C  0.84976328  0.70062271  0.09949912     0.18700
C585        C  0.81408359  0.66543922  0.09861686     0.16000
C586        C  0.80610648  0.64101744  0.07501349    -0.18500
C587        C  0.78950277  0.65260976  0.12181631    -0.20300
C588        C  0.80337206  0.67081316  0.14623314    -0.12900
C589        C  0.84103362  0.70309069  0.14745349     0.03800
C590        C  0.86159550  0.72054582  0.12371887    -0.25000
H591        H  0.89037099  0.69348642  0.03628929     0.08900
H592        H  0.90339744  0.73895500  0.07712303     0.12500
H593        H  0.77989089  0.61254958  0.07453136     0.12400
H594        H  0.76182157  0.62576956  0.12131447     0.12100
H595        H  0.78725884  0.65672262  0.16412060     0.12700
H596        H  0.89050879  0.74595076  0.12443883     0.14600
C597        C  0.81574585  0.27205868  0.32023454    -0.05400
C598        C  0.78911033  0.31565891  0.32136655    -0.05300
C599        C  0.77542060  0.33431654  0.34574504    -0.23500
C600        C  0.78965023  0.31019280  0.36907837     0.18700
C601        C  0.81241327  0.26371045  0.36802004     0.16000
C602        C  0.82411291  0.24422813  0.34342739    -0.18500
C603        C  0.82772787  0.24043443  0.39144705    -0.20300
C604        C  0.82484911  0.26542814  0.41539028    -0.12900
C605        C  0.80626166  0.31353722  0.41596508     0.03800
C606        C  0.78598533  0.33421790  0.39311883    -0.25000
H607        H  0.78315582  0.33779858  0.30373041     0.08900
H608        H  0.75766016  0.36989897  0.34637952     0.12500
H609        H  0.84534010  0.21079414  0.34247223     0.12400
H610        H  0.84481750  0.20448940  0.39095240     0.12100
H611        H  0.83979080  0.24866849  0.43292576     0.12700
H612        H  0.77041638  0.37096464  0.39370159     0.14600
C613        C  0.81769932  0.31153824  0.17231335    -0.05400
C614        C  0.80472274  0.36127923  0.16911463    -0.05300
C615        C  0.79625722  0.38078359  0.14406555    -0.23500
C616        C  0.80236298  0.35104995  0.12192827     0.18700
C617        C  0.81230629  0.30007086  0.12494651     0.16000
C618        C  0.81850704  0.28023379  0.15038969    -0.18500
C619        C  0.81970808  0.27114655  0.10243330    -0.20300
C620        C  0.81920968  0.29329229  0.07720615    -0.12900
C621        C  0.81144429  0.34450596  0.07439731     0.03800
C622        C  0.80174807  0.37251642  0.09687854    -0.25000
H623        H  0.80548455  0.38598633  0.18566244     0.08900
H624        H  0.78864233  0.42000503  0.14185938     0.12500
H625        H  0.83004485  0.24205941  0.15281253     0.12400
H626        H  0.82735326  0.23189538  0.10439938     0.12100
H627        H  0.82605298  0.27087914  0.06011323     0.12700
H628        H  0.79496489  0.41192639  0.09500236     0.14600
C629        C  0.32963692  0.83326876  0.42518206    -0.05400
C630        C  0.28094190  0.83510589  0.42744119    -0.05300
C631        C  0.25583520  0.79112224  0.43055287    -0.23500
C632        C  0.27921909  0.74496720  0.43133019     0.18700
C633        C  0.32781226  0.74287111  0.42746117     0.16000
C634        C  0.35243839  0.78675653  0.42424836    -0.18500
C635        C  0.35144298  0.69702913  0.42797568    -0.20300
C636        C  0.32762276  0.65361538  0.43431867    -0.12900
C637        C  0.27985652  0.65552520  0.44002616     0.03800
C638        C  0.25542866  0.70110988  0.43722911    -0.25000
H639        H  0.26255709  0.87033725  0.42747584     0.08900
H640        H  0.21837151  0.79324951  0.43311211     0.12500
H641        H  0.38988498  0.78448802  0.42146461     0.12400
H642        H  0.38875379  0.69505416  0.42469887     0.12100
H643        H  0.34699210  0.61912381  0.43623751     0.12700
H644        H  0.21823160  0.70286996  0.44104166     0.14600
C645        C  0.32708140  0.13302045  0.42253679    -0.05400
C646        C  0.28356008  0.12875740  0.43497239    -0.05300
C647        C  0.25903542  0.17151415  0.44252983    -0.23500
C648        C  0.27792532  0.21870320  0.43772896     0.18700
C649        C  0.32109570  0.22305110  0.42461452     0.16000
C650        C  0.34491852  0.18040097  0.41689066    -0.18500
C651        C  0.34046706  0.26988064  0.42001154    -0.20300
C652        C  0.31759081  0.31242321  0.42886268    -0.12900
C653        C  0.27497123  0.30868073  0.44238717     0.03800
C654        C  0.25498426  0.26154080  0.44630924    -0.25000
H655        H  0.26947739  0.09266395  0.43966974     0.08900
H656        H  0.22589603  0.16768872  0.45266031     0.12500
H657        H  0.37835291  0.18408870  0.40700216     0.12400
H658        H  0.37373401  0.27350814  0.40998572     0.12100
H659        H  0.33369816  0.34804687  0.42559811     0.12700
H660        H  0.22187650  0.25787577  0.45650672     0.14600
C661        C  0.28153971  0.66377744  0.03904133    -0.05400
C662        C  0.32123880  0.65832400  0.05477247    -0.05300
C663        C  0.34262271  0.69993374  0.06503195    -0.23500
C664        C  0.32476171  0.74761083  0.05960854     0.18700
C665        C  0.28416632  0.75364960  0.04447495     0.16000
C666        C  0.26265449  0.71178138  0.03451846    -0.18500
C667        C  0.26663997  0.80153963  0.03888576    -0.20300
C668        C  0.29057181  0.84328757  0.04719492    -0.12900
C669        C  0.33205799  0.83742408  0.06126995     0.03800
C670        C  0.34794404  0.78942628  0.06819040    -0.25000
H671        H  0.33620214  0.62203698  0.05879205     0.08900
H672        H  0.37376598  0.69490957  0.07671756     0.12500
H673        H  0.23158871  0.71692637  0.02277059     0.12400
H674        H  0.23538013  0.80668575  0.02731642     0.12100
H675        H  0.27798062  0.87986173  0.04156721     0.12700
H676        H  0.37974385  0.78457824  0.07936491     0.14600
C677        C  0.27924145  0.31528444  0.04109414    -0.05400
C678        C  0.32543107  0.31634321  0.04971253    -0.05300
C679        C  0.34917204  0.27219924  0.05580871    -0.23500
C680        C  0.32710123  0.22643432  0.05325400     0.18700
C681        C  0.27980622  0.22486432  0.04626918     0.16000
C682        C  0.25601723  0.26936675  0.04056075    -0.18500
C683        C  0.25787201  0.17875072  0.04405497    -0.20300
C684        C  0.28336284  0.13446470  0.04760462    -0.12900
C685        C  0.33108154  0.13598333  0.05316216     0.03800
C686        C  0.35215558  0.18223506  0.05671530    -0.25000
H687        H  0.34392894  0.35096393  0.05039533     0.08900
H688        H  0.38541285  0.27372846  0.06148374     0.12500
H689        H  0.21996010  0.26800203  0.03447070     0.12400
H690        H  0.22135971  0.17697854  0.03898815     0.12100
H691        H  0.26622739  0.09933870  0.04534095     0.12700
H692        H  0.38863749  0.18400539  0.06193375     0.14600
C693        C  0.11467546  0.68874715  0.31491632    -0.05400
C694        C  0.15556195  0.66057583  0.31810416    -0.05300
C695        C  0.17041797  0.64732038  0.34351429    -0.23500
C696        C  0.14373908  0.66132126  0.36561225     0.18700
C697        C  0.10534780  0.69390683  0.36235379     0.16000
C698        C  0.09181916  0.70814718  0.33704142    -0.18500
C699        C  0.07793401  0.70735379  0.38416267    -0.20300
C700        C  0.08507296  0.68415010  0.40856282    -0.12900
C701        C  0.12021458  0.64827380  0.41131808     0.03800
C702        C  0.15140519  0.63928900  0.39036872    -0.25000
H703        H  0.17370812  0.64577877  0.30115832     0.08900
H704        H  0.20041043  0.62293623  0.34576691     0.12500
H705        H  0.06049131  0.73047257  0.33443411     0.12400
H706        H  0.04867818  0.73273137  0.38186011     0.12100
H707        H  0.06106532  0.69134915  0.42462749     0.12700
H708        H  0.17877671  0.61156515  0.39272541     0.14600
C709        C  0.12293501  0.65797654  0.06573547    -0.05400
C710        C  0.10299044  0.70529152  0.06308693    -0.05300
C711        C  0.10186060  0.73686032  0.08461305    -0.23500
C712        C  0.12108777  0.72134155  0.10876659     0.18700
C713        C  0.14486379  0.67544498  0.11073662     0.16000
C714        C  0.14566823  0.64412940  0.08916045    -0.18500
C715        C  0.16420739  0.66001754  0.13484262    -0.20300
C716        C  0.15420109  0.68638349  0.15766544    -0.12900
C717        C  0.12527253  0.72845663  0.15632653     0.03800
C718        C  0.11288988  0.74844717  0.13154637    -0.25000
H719        H  0.08650672  0.71680761  0.04486996     0.08900
H720        H  0.08400103  0.77228587  0.08276793     0.12500
H721        H  0.16249688  0.60805759  0.09087163     0.12400
H722        H  0.18345403  0.62537099  0.13645380     0.12100
H723        H  0.16442391  0.67071993  0.17652554     0.12700
H724        H  0.09131198  0.78164527  0.13039660     0.14600
C725        C  0.12266591  0.32312363  0.41428710    -0.05400
C726        C  0.09800228  0.27880642  0.41640852    -0.05300
C727        C  0.09341954  0.24883256  0.39442207    -0.23500
C728        C  0.11364742  0.26290984  0.37020174     0.18700
C729        C  0.14214737  0.30502855  0.36863211     0.16000
C730        C  0.14671355  0.33467588  0.39078697    -0.18500
C731        C  0.16206037  0.31921436  0.34434244    -0.20300
C732        C  0.14850773  0.29614439  0.32119676    -0.12900
C733        C  0.11564970  0.25825956  0.32234392     0.03800
C734        C  0.10186717  0.23881799  0.34706230    -0.25000
H735        H  0.08000593  0.26898244  0.43452125     0.08900
H736        H  0.07181502  0.21630665  0.39595106     0.12500
H737        H  0.16682157  0.36833960  0.38934162     0.12400
H738        H  0.18468636  0.35095215  0.34294926     0.12100
H739        H  0.15950364  0.31159179  0.30239538     0.12700
H740        H  0.07670674  0.20919960  0.34799867     0.14600
C741        C  0.11698261  0.29392452  0.16785259    -0.05400
C742        C  0.14682013  0.33443851  0.16719826    -0.05300
C743        C  0.16389987  0.35221627  0.14306728    -0.23500
C744        C  0.15003245  0.33023415  0.11958368     0.18700
C745        C  0.12381853  0.28638694  0.12043831     0.16000
C746        C  0.10815855  0.26802558  0.14473278    -0.18500
C747        C  0.10935359  0.26490284  0.09692418    -0.20300
C748        C  0.11570086  0.29007015  0.07293958    -0.12900
C749        C  0.13680733  0.33647028  0.07251027     0.03800
C750        C  0.15726860  0.35434772  0.09546086    -0.25000
H751        H  0.15352771  0.35474781  0.18492764     0.08900
H752        H  0.18443302  0.38559713  0.14262137     0.12500
H753        H  0.08472932  0.23682671  0.14540125     0.12400
H754        H  0.08994963  0.23076658  0.09731481     0.12100
H755        H  0.10083406  0.27536127  0.05523777     0.12700
H756        H  0.17501819  0.38957115  0.09491201     0.14600
O757        O  0.23850623  0.39564039  0.55329592    -0.75400
O758        O  0.20385928  0.34296933  0.52518336    -0.54300
C759        C  0.22807314  0.35178776  0.54552390     0.78300
O760        O  0.08108701  0.56817353  0.54617223    -0.60000
O761        O  0.11612871  0.62670524  0.52036268    -0.53100
C762        C  0.09573603  0.61242128  0.54170938     0.70300
O763        O  0.09244853  0.41310985  0.55180589    -0.74600
O764        O  0.11707208  0.34822306  0.52725849    -0.55200
C765        C  0.10248181  0.36705385  0.54891506     0.76300
O766        O  0.24501812  0.56602828  0.55028540    -0.59700
O767        O  0.20978394  0.62283680  0.52314385    -0.52900
C768        C  0.23521246  0.61104246  0.54289156     0.72900
Zr769      Zr  0.22486717  0.48129746  0.53651146     2.54700
O770        O  0.21247158  0.48277984  0.58391550    -0.80300
O771        O  0.30932561  0.47778847  0.54050461    -0.93700
Zr772      Zr  0.08629675  0.48781483  0.52487176     2.64700
O773        O  0.02673295  0.48254028  0.55929703    -0.98700
O774        O  0.00979439  0.48449486  0.50472916    -0.80700
O775        O  0.15561206  0.44614117  0.52635450    -0.84100
O776        O  0.15716943  0.53063040  0.53166665    -2.18800
O777        O  0.25064891  0.57580297  0.92931607    -0.67500
O778        O  0.21078373  0.63042547  0.95498383    -0.52100
C779        C  0.23799171  0.62006917  0.93581722     0.71300
O780        O  0.09948639  0.41726471  0.93189132    -0.60400
O781        O  0.11921566  0.35537841  0.96047059    -0.52400
C782        C  0.10714468  0.37132738  0.93761617     0.73100
O783        O  0.08090910  0.57620853  0.93705932    -0.71800
O784        O  0.12167268  0.63462849  0.95875705    -0.50500
C785        C  0.09560020  0.62057997  0.94001620     0.74500
O786        O  0.24367076  0.40697189  0.92863285    -0.67100
O787        O  0.20839706  0.35248950  0.95680550    -0.54300
C788        C  0.23253098  0.36286631  0.93620334     0.72900
Zr789      Zr  0.23024181  0.49128194  0.94449025     2.77500
O790        O  0.21681375  0.49444565  0.89721009    -0.97900
O791        O  0.31459632  0.48572498  0.94002858    -0.78700
Zr792      Zr  0.09183777  0.49353998  0.95661836     2.70100
O793        O  0.04031082  0.49637307  0.91875542    -0.79900
O794        O  0.01432806  0.48003491  0.97497510    -0.99000
Zr795      Zr  0.16900428  0.40014598  0.98950063     2.21500
Zr796      Zr  0.16634490  0.57755721  0.49201155     2.11100
O797        O  0.16127850  0.53867178  0.94887316    -2.47700
O798        O  0.16199933  0.45384520  0.95545405    -0.79700
O799        O  0.24140153  0.53950143  0.98249708    -0.71900
O800        O  0.09163305  0.43691391  0.48710927    -2.32900
O801        O  0.24109705  0.44236385  0.98326704    -2.29100
O802        O  0.09402996  0.53722761  0.48607615    -0.73700
H803        H  0.15816865  0.54969275  0.54747915     0.78300
H804        H  0.06538822  0.41523666  0.48526370     0.79400
H805        H  0.16043240  0.55832039  0.93289378     0.81600
H806        H  0.26699258  0.41959553  0.98110869     0.79200
H807        H  0.99825638  0.51917779  0.50463450     0.42300
H808        H  0.99658724  0.51061894  0.97048383     0.41200
H809        H  0.06104530  0.50239716  0.90340900     0.40900
H810        H  0.24835615  0.49546953  0.88921296     0.38800
H811        H  0.32023966  0.48364896  0.92083687     0.42000
H812        H  0.32002284  0.51042175  0.53389874     0.36800
H813        H  0.17837677  0.48701026  0.58614317     0.42900
H814        H  0.04270176  0.49172602  0.57565667     0.39300
H815        H  0.20476242  0.46152358  0.89270357     0.44200
H816        H  0.31991897  0.45421158  0.52695579     0.42900
H817        H  0.00492546  0.51047466  0.55568058     0.43100
H818        H  0.00071078  0.45426051  0.96386895     0.43400
O819        O  0.79932071  0.40731850  0.55722445    -0.75400
O820        O  0.79817765  0.35042373  0.02784196    -0.54300
C821        C  0.78965587  0.36145000  0.55461652     0.78300
O822        O  0.65908318  0.57116224  0.52896178    -0.60000
O823        O  0.70841970  0.62264381  0.50650607    -0.53100
C824        C  0.67439934  0.61466343  0.52245960     0.70300
O825        O  0.64773056  0.39836401  0.53258689    -0.74600
O826        O  0.71108284  0.35009111  0.02566696    -0.55200
C827        C  0.66192475  0.35293925  0.52953713     0.76300
O828        O  0.81938916  0.56380477  0.54707995    -0.59700
O829        O  0.79984012  0.62108271  0.51556136    -0.52900
C830        C  0.81163475  0.60854029  0.53913684     0.72900
Zr831      Zr  0.81633099  0.47976904  0.53058034     2.54700
O832        O  0.83866491  0.48641927  0.57652521    -0.80300
O833        O  0.90012336  0.46548058  0.52881922    -0.93700
Zr834      Zr  0.67789774  0.48277957  0.52099222     2.64700
O835        O  0.66832494  0.48379144  0.56861049    -0.98700
O836        O  0.59434263  0.49226343  0.51427343    -0.80700
O837        O  0.74743659  0.44182122  0.52331846    -0.84100
O838        O  0.74780978  0.52796276  0.52414503    -2.18800
O839        O  0.81330858  0.55530864  0.92006927    -0.67500
O840        O  0.78852914  0.62016912  0.94479931    -0.52100
C841        C  0.80172432  0.60103224  0.92290062     0.71300
O842        O  0.65621262  0.39631516  0.94592059    -0.60400
O843        O  0.70016881  0.34262420  0.97063222    -0.52400
C844        C  0.66897038  0.35208857  0.95340779     0.73100
O845        O  0.64561213  0.57045135  0.94743020    -0.71800
O846        O  0.70083029  0.62461342  0.96038865    -0.50500
C847        C  0.66186642  0.61480740  0.94989079     0.74500
O848        O  0.79420663  0.39720505  0.92611063    -0.67100
O849        O  0.78781988  0.34034217  0.95917460    -0.54300
C850        C  0.78954272  0.35244927  0.93467082     0.72900
Zr851      Zr  0.81384950  0.47717854  0.94438023     2.77500
O852        O  0.84315718  0.46465897  0.89977769    -0.97900
O853        O  0.89811179  0.46851807  0.94799214    -0.78700
Zr854      Zr  0.67421208  0.48373282  0.95600103     2.70100
O855        O  0.66768907  0.48837237  0.90827989    -0.79900
O856        O  0.58967709  0.47926783  0.95904510    -0.99000
Zr857      Zr  0.75451680  0.39254171  0.99292926     2.21500
Zr858      Zr  0.75754011  0.57780952  0.98389722     2.11100
O859        O  0.74410323  0.52602254  0.94743417    -2.47700
O860        O  0.74324806  0.43505066  0.95239875    -0.79700
O861        O  0.82866207  0.53201793  0.97956620    -0.71900
O862        O  0.68287485  0.43896548  0.99639222    -2.32900
O863        O  0.82691176  0.43186893  0.98425008    -2.29100
O864        O  0.68547000  0.53590611  0.99251519    -0.73700
H865        H  0.74204800  0.54996995  0.53855100     0.78300
H866        H  0.65634735  0.41790828  0.99935610     0.79400
H867        H  0.73620446  0.54414257  0.93158376     0.81600
H868        H  0.85198246  0.40784044  0.98306742     0.79200
H869        H  0.58374553  0.45908985  0.50915630     0.42300
H870        H  0.57937366  0.47809988  0.94052451     0.41200
H871        H  0.69433373  0.46835321  0.90172671     0.40900
H872        H  0.81682164  0.47403328  0.88818595     0.38800
H873        H  0.90446860  0.43260401  0.94635027     0.42000
H874        H  0.90625668  0.44058139  0.54291400     0.36800
H875        H  0.80914833  0.49305637  0.58613143     0.42900
H876        H  0.69885713  0.49455185  0.57520842     0.39300
H877        H  0.86659481  0.49070209  0.89662184     0.44200
H878        H  0.91358129  0.49642398  0.53540667     0.42900
H879        H  0.64703287  0.51216920  0.57192822     0.43100
H880        H  0.58328593  0.44578904  0.96629000     0.43400
O881        O  0.37130046  0.10084973  0.63896840    -0.75400
O882        O  0.32070008  0.04390379  0.62366279    -0.54300
C883        C  0.32940736  0.08437521  0.63511354     0.78300
O884        O  0.52045856  0.08477465  0.54248549    -0.60000
O885        O  0.58005592  0.04655471  0.56428761    -0.53100
C886        C  0.56318209  0.08199635  0.54970964     0.70300
O887        O  0.37471622  0.09355195  0.55914140    -0.74600
O888        O  0.31783035  0.04312167  0.57456839    -0.55200
C889        C  0.33220452  0.08523664  0.56583209     0.76300
O890        O  0.53670702  0.09016020  0.64175751    -0.59700
O891        O  0.58615813  0.04288980  0.61701697    -0.52900
C892        C  0.57813373  0.07600627  0.63415419     0.72900
Zr893      Zr  0.45383260  0.07102696  0.63063835     2.54700
O894        O  0.46051342  0.15943008  0.62166809    -0.80300
O895        O  0.44862754  0.08184001  0.67800109    -0.93700
Zr896      Zr  0.44656131  0.04589371  0.55259916     2.64700
O897        O  0.44534707  0.11758283  0.52281031    -0.98700
O898        O  0.42958442  0.01238203  0.50973738    -0.80700
O899        O  0.40784803  0.05779774  0.59310342    -0.84100
O900        O  0.49367050  0.05921934  0.59012923    -2.18800
O901        O  0.54121289  0.92126105  0.65944132    -0.67500
O902        O  0.58966189  0.95079636  0.62719314    -0.52100
C903        C  0.58227127  0.93148558  0.65002913     0.71300
O904        O  0.37909039  0.85891323  0.57791548    -0.60400
O905        O  0.32045640  0.91441037  0.58424365    -0.52400
C906        C  0.33581081  0.86993892  0.58066144     0.73100
O907        O  0.52578841  0.86559839  0.56112343    -0.71800
O908        O  0.58393204  0.91748579  0.57229437    -0.50500
C909        C  0.56887157  0.87568526  0.56396545     0.74500
O910        O  0.37878714  0.90919744  0.66266684    -0.67100
O911        O  0.32524260  0.94716549  0.63604081    -0.54300
C912        C  0.33642309  0.92195138  0.65649610     0.72900
Zr913      Zr  0.45849881  0.92608722  0.64465274     2.77500
O914        O  0.46702171  0.83654497  0.64951339    -0.97900
O915        O  0.45746032  0.93537112  0.69217727    -0.78700
Zr916      Zr  0.44994750  0.90241383  0.56711006     2.70100
O917        O  0.45086218  0.81438867  0.55747019    -0.79900
O918        O  0.43251380  0.90130455  0.52047537    -0.99000
Zr919      Zr  0.36493587  0.98463038  0.60036579     2.21500
Zr920      Zr  0.54097197  0.98616369  0.59350350     2.11100
O921        O  0.49867926  0.91316203  0.60419410    -2.47700
O922        O  0.41065131  0.91233323  0.60767348    -0.79700
O923        O  0.50105654  0.99858001  0.63462200    -0.71900
O924        O  0.40175975  0.97302358  0.55906429    -2.32900
O925        O  0.41116460  0.99798808  0.63867361    -2.29100
O926        O  0.49477071  0.97359240  0.55570703    -0.73700
H927        H  0.51164511  0.08898189  0.58871982     0.78300
H928        H  0.37907156  0.96801693  0.54547723     0.79400
H929        H  0.51947385  0.88538916  0.60716261     0.81600
H930        H  0.39193298  0.00319607  0.65407297     0.79200
H931        H  0.39761539  0.02419782  0.50571767     0.42300
H932        H  0.45806175  0.88090455  0.51298975     0.41200
H933        H  0.45538221  0.79759883  0.57474609     0.40900
H934        H  0.44199724  0.82306048  0.63854008     0.38800
H935        H  0.47124053  0.90407716  0.69911885     0.42000
H936        H  0.47173675  0.10758179  0.68181722     0.36800
H937        H  0.44306234  0.16504334  0.60514840     0.42900
H938        H  0.41561477  0.11570679  0.51318134     0.39300
H939        H  0.49621357  0.82788876  0.64007267     0.44200
H940        H  0.46218468  0.05093636  0.68555609     0.42900
H941        H  0.44130094  0.14649497  0.53436863     0.43100
H942        H  0.40460505  0.88032061  0.51928497     0.43400
O943        O  0.37210924  0.11187474  0.90373259    -0.75400
O944        O  0.31459217  0.05746702  0.89579049    -0.54300
C945        C  0.32929132  0.10142308  0.90011753     0.78300
O946        O  0.53889511  0.03843055  0.82015768    -0.60000
O947        O  0.58624805  0.01300344  0.85366136    -0.53100
C948        C  0.57970054  0.02869809  0.83012413     0.70300
O949        O  0.37510840  0.05554311  0.81581204    -0.74600
O950        O  0.32096525  0.02505665  0.84464443    -0.55200
C951        C  0.33246481  0.04615926  0.82303277     0.76300
O952        O  0.51950280  0.10496761  0.91700720    -0.59700
O953        O  0.57776768  0.05063655  0.90676685    -0.52900
C954        C  0.56260308  0.09342581  0.91434213     0.72900
Zr955      Zr  0.44443918  0.06858348  0.91216843     2.54700
O956        O  0.44416421  0.15716001  0.92052315    -0.80300
O957        O  0.43195205  0.06873240  0.95955651    -0.93700
Zr958      Zr  0.45502194  0.04042068  0.83462718     2.64700
O959        O  0.46400581  0.12940896  0.82885473    -0.98700
O960        O  0.45985895  0.03519705  0.78691443    -0.80700
O961        O  0.40626039  0.05754963  0.87159379    -0.84100
O962        O  0.49371043  0.05486439  0.87493432    -2.18800
O963        O  0.51413401  0.88556664  0.93920368    -0.67500
O964        O  0.57411272  0.92220503  0.91716824    -0.52100
C965        C  0.55696492  0.88733194  0.93182100     0.71300
O966        O  0.36925519  0.87047223  0.84138416    -0.60400
O967        O  0.31688554  0.92794183  0.85629459    -0.52400
C968        C  0.32713723  0.88750551  0.84478879     0.73100
O969        O  0.53389616  0.87348607  0.84160709    -0.71800
O970        O  0.58298129  0.92032670  0.86569926    -0.50500
C971        C  0.57522673  0.88608166  0.84926527     0.74500
O972        O  0.36847266  0.88302909  0.92403938    -0.67100
O973        O  0.31150867  0.93008751  0.90540679    -0.54300
C974        C  0.32664476  0.88949389  0.91592164     0.72900
Zr975      Zr  0.44084869  0.92674495  0.92891923     2.77500
O976        O  0.43854341  0.85344235  0.95753446    -0.97900
O977        O  0.42439551  0.96007554  0.97222773    -0.78700
Zr978      Zr  0.45057805  0.89682706  0.85106643     2.70100
O979        O  0.45348401  0.80866914  0.86164654    -0.79900
O980        O  0.44952475  0.88009337  0.80413617    -0.99000
Zr981      Zr  0.36020673  0.98662077  0.87986985     2.21500
Zr982      Zr  0.53582569  0.98125499  0.88691219     2.11100
O983        O  0.48844230  0.90987792  0.89146180    -2.47700
O984        O  0.40349107  0.91318399  0.88847857    -0.79700
O985        O  0.48925047  0.99729571  0.92467347    -0.71900
O986        O  0.40751150  0.97013991  0.84166462    -2.32900
O987        O  0.39571052  0.99984184  0.92106297    -2.29100
O988        O  0.49778692  0.96759948  0.84571033    -0.73700
H989        H  0.51432877  0.08214448  0.87137651     0.78300
H990        H  0.38869855  0.96452711  0.82637241     0.79400
H991        H  0.50626409  0.87962229  0.89330359     0.81600
H992        H  0.37272312  0.00597317  0.93464844     0.79200
H993        H  0.43920175  0.00755406  0.78246819     0.42300
H994        H  0.43244016  0.84864230  0.80276139     0.41200
H995        H  0.44329836  0.80635568  0.88027217     0.40900
H996        H  0.40952908  0.85657851  0.96806186     0.38800
H997        H  0.39277675  0.94830134  0.97677319     0.42000
H998        H  0.39842643  0.07663444  0.96188661     0.36800
H999        H  0.44557293  0.17315992  0.90286789     0.42900
H1000       H  0.44694195  0.13761914  0.81247929     0.39300
H1001       H  0.43291141  0.82552188  0.94562925     0.44200
H1002       H  0.44805377  0.09871491  0.96543536     0.42900
H1003       H  0.44470386  0.14402354  0.84302992     0.43100
H1004       H  0.42815759  0.90543681  0.79651788     0.43400
O1005       O  0.03418128  0.14657979  0.67997536    -0.75400
O1006       O  0.08243319  0.18154220  0.70962833    -0.54300
C1007       C  0.07517567  0.15867998  0.68817236     0.78300
O1008       O  0.85848136  0.30676691  0.69883812    -0.60000
O1009       O  0.80879943  0.24825150  0.71482561    -0.53100
C1010       C  0.81906058  0.28490591  0.69950599     0.70300
O1011       O  0.00851645  0.29890432  0.68950003    -0.74600
O1012       O  0.07037863  0.27376052  0.71409118    -0.55200
C1013       C  0.05232477  0.29193434  0.69302281     0.76300
O1014       O  0.87246533  0.13096325  0.68005691    -0.59700
O1015       O  0.82053245  0.14911863  0.71268174    -0.52900
C1016       C  0.83061935  0.13325041  0.68984837     0.72900
Zr1017     Zr  0.95181807  0.15191857  0.69594313     2.54700
O1018       O  0.94949308  0.17308083  0.64924497    -0.80300
O1019       O  0.96369948  0.06424475  0.68730674    -0.93700
Zr1020     Zr  0.93725453  0.29470277  0.71516651     2.64700
O1021       O  0.93524789  0.35160074  0.67738108    -0.98700
O1022       O  0.94176437  0.37560955  0.73532986    -0.80700
O1023       O  0.98077302  0.22468180  0.71019817    -0.84100
O1024       O  0.90074773  0.21943239  0.70454236    -2.18800
O1025       O  0.87497108  0.07824557  0.78170506    -0.67500
O1026       O  0.81997837  0.12990099  0.76378853    -0.52100
C1027       C  0.83211999  0.09070365  0.77649913     0.71300
O1028       O  0.01393139  0.24419827  0.81118020    -0.60400
O1029       O  0.06935991  0.25539184  0.77979064    -0.52400
C1030       C  0.05546981  0.25496579  0.80389826     0.73100
O1031       O  0.86189831  0.25413003  0.80813790    -0.71800
O1032       O  0.80800691  0.22762303  0.77916585    -0.50500
C1033       C  0.82010494  0.24332275  0.80183055     0.74500
O1034       O  0.03650170  0.09426254  0.78198833    -0.67100
O1035       O  0.08121317  0.15485910  0.76361525    -0.54300
C1036       C  0.07630523  0.11440687  0.77659774     0.72900
Zr1037     Zr  0.95355749  0.11363667  0.77177716     2.77500
O1038       O  0.95777717  0.08617117  0.81756165    -0.97900
O1039       O  0.96195871  0.03007730  0.75527551    -0.78700
Zr1040     Zr  0.93998224  0.25804999  0.78984806     2.70100
O1041       O  0.93251373  0.27365979  0.83679849    -0.79900
O1042       O  0.94716799  0.34755908  0.79267918    -0.99000
Zr1043     Zr  0.03225174  0.21483889  0.74312979     2.21500
Zr1044     Zr  0.85837879  0.19812822  0.74363832     2.11100
O1045       O  0.90341665  0.18146052  0.78185631    -2.47700
O1046       O  0.99024394  0.18973189  0.78137005    -0.79700
O1047       O  0.90747244  0.12842932  0.73375382    -0.71900
O1048       O  0.98483209  0.28514715  0.75285300    -2.32900
O1049       O  0.99792554  0.13683718  0.73386208    -2.29100
O1050       O  0.89157645  0.27593747  0.75307096    -0.73700
H1051       H  0.88197281  0.22282020  0.68898874     0.78300
H1052       H  0.00348952  0.31387512  0.75613618     0.79400
H1053       H  0.88440259  0.17114986  0.79664894     0.81600
H1054       H  0.02139895  0.11190155  0.73021398     0.79200
H1055       H  0.96707741  0.39263330  0.72557497     0.42300
H1056       H  0.92642166  0.35716921  0.80742804     0.41200
H1057       H  0.92670662  0.24081661  0.84502918     0.40900
H1058       H  0.93436545  0.10684296  0.82682869     0.38800
H1059       H  0.95181149  0.00843993  0.77008252     0.42000
H1060       H  0.93213521  0.04994449  0.68787205     0.36800
H1061       H  0.94334370  0.20920479  0.64862874     0.42900
H1062       H  0.91846309  0.33399648  0.66347767     0.39300
H1063       H  0.94446214  0.05254743  0.81781395     0.44200
H1064       H  0.97919166  0.05065294  0.70320915     0.42900
H1065       H  0.91394126  0.37893073  0.68254552     0.43100
H1066       H  0.97903403  0.35250286  0.79938781     0.43400
O1067       O  0.03330427  0.73802148  0.67413731    -0.75400
O1068       O  0.08585576  0.71441813  0.70422189    -0.54300
C1069       C  0.07344841  0.72063414  0.68014367     0.78300
O1070       O  0.87777089  0.88288383  0.70175651    -0.60000
O1071       O  0.82535765  0.82698877  0.71760256    -0.53100
C1072       C  0.83534658  0.86756335  0.70588902     0.70300
O1073       O  0.04307190  0.87266635  0.70312692    -0.74600
O1074       O  0.09016337  0.81428529  0.72242156    -0.55200
C1075       C  0.08374795  0.85438395  0.70929106     0.76300
O1076       O  0.88578417  0.70823139  0.67041290    -0.59700
O1077       O  0.82624922  0.72971364  0.69795072    -0.52900
C1078       C  0.84264157  0.71617135  0.67541111     0.72900
Zr1079     Zr  0.96004974  0.70810814  0.69146789     2.54700
O1080       O  0.96034367  0.69473294  0.64417079    -0.80300
O1081       O  0.97885421  0.62064576  0.68606187    -0.93700
Zr1082     Zr  0.95946480  0.85151931  0.71155147     2.64700
O1083       O  0.96175660  0.87806655  0.66551549    -0.98700
O1084       O  0.96656873  0.93618203  0.72627528    -0.80700
O1085       O  0.00336267  0.77856094  0.70210653    -0.84100
O1086       O  0.91580960  0.78144496  0.69973578    -2.18800
O1087       O  0.86999480  0.65219069  0.78017708    -0.67500
O1088       O  0.81799236  0.70708628  0.76218664    -0.52100
C1089       C  0.82932080  0.67222709  0.77835234     0.71300
O1090       O  0.03470891  0.81518881  0.80488978    -0.60400
O1091       O  0.08648806  0.78707651  0.77426664    -0.52400
C1092       C  0.07688284  0.80622829  0.79642660     0.73100
O1093       O  0.87128993  0.82710439  0.80118243    -0.71800
O1094       O  0.82184350  0.79961492  0.76994736    -0.50500
C1095       C  0.82978376  0.81986793  0.79204494     0.74500
O1096       O  0.01719307  0.66412127  0.79317902    -0.67100
O1097       O  0.08054509  0.69798707  0.77326552    -0.54300
C1098       C  0.05988896  0.67758046  0.79309402     0.72900
Zr1099     Zr  0.94969740  0.66629510  0.76519757     2.77500
O1100       O  0.94706629  0.60700284  0.80198856    -0.97900
O1101       O  0.95984936  0.58837611  0.74221763    -0.78700
Zr1102     Zr  0.95359335  0.80947509  0.78673442     2.70100
O1103       O  0.95010355  0.79218457  0.83389578    -0.79900
O1104       O  0.95836193  0.89844834  0.79300282    -0.99000
Zr1105     Zr  0.04250305  0.75178411  0.74072419     2.21500
Zr1106     Zr  0.86786883  0.76063655  0.73652125     2.11100
O1107       O  0.90819201  0.73979742  0.77615890    -2.47700
O1108       O  0.98753368  0.73843756  0.77175484    -0.79700
O1109       O  0.90783186  0.68568888  0.72637305    -0.71900
O1110       O  0.00201981  0.82800222  0.74998621    -2.32900
O1111       O  0.00165156  0.67954807  0.72919970    -2.29100
O1112       O  0.91078559  0.83255935  0.74838800    -0.73700
H1113       H  0.89765295  0.79158553  0.68466389     0.78300
H1114       H  0.02334721  0.85386424  0.75445902     0.79400
H1115       H  0.88858346  0.73509545  0.79113111     0.81600
H1116       H  0.02262005  0.65199686  0.72608606     0.79200
H1117       H  0.97801333  0.95472100  0.71060699     0.42300
H1118       H  0.92627986  0.91114324  0.79013570     0.41200
H1119       H  0.91983815  0.77576995  0.83690453     0.40900
H1120       H  0.93372114  0.62578760  0.81688191     0.38800
H1121       H  0.95867817  0.56208323  0.75597432     0.42000
H1122       H  0.99789733  0.61902976  0.66976717     0.36800
H1123       H  0.96851912  0.72718674  0.63619094     0.42900
H1124       H  0.93073806  0.86998218  0.65851710     0.39300
H1125       H  0.92279905  0.58279703  0.79763976     0.44200
H1126       H  0.94888949  0.60540489  0.68146035     0.42900
H1127       H  0.96192172  0.91467225  0.66601215     0.43100
H1128       H  0.96343603  0.90194584  0.81212026     0.43400
C1129       C  0.61812783  0.86236152  0.83790845    -0.05400
C1130       C  0.61636992  0.83458863  0.81486934    -0.05300
C1131       C  0.65754853  0.81968346  0.80206038    -0.23500
C1132       C  0.70137544  0.83237725  0.81195214     0.18700
C1133       C  0.70395385  0.85839224  0.83562619     0.16000
C1134       C  0.66246169  0.87264167  0.84860022    -0.18500
C1135       C  0.74796017  0.87101054  0.84541370    -0.20300
C1136       C  0.78904235  0.85878733  0.83154543    -0.12900
C1137       C  0.78696654  0.83370468  0.80758614     0.03800
C1138       C  0.74255646  0.82024076  0.79822642    -0.25000
H1139       H  0.58320814  0.82612013  0.80612946     0.08900
H1140       H  0.65508060  0.79942190  0.78392692     0.12500
H1141       H  0.66487435  0.89354728  0.86653559     0.12400
H1142       H  0.75058040  0.89093422  0.86364737     0.12100
H1143       H  0.82231529  0.86926723  0.83946702     0.12700
H1144       H  0.73968375  0.80036228  0.77999226     0.14600
C1145       C  0.28622297  0.86019150  0.83517775    -0.05400
C1146       C  0.28894902  0.83069179  0.81279001    -0.05300
C1147       C  0.24839704  0.81107711  0.80214709    -0.23500
C1148       C  0.20454777  0.82097434  0.81365906     0.18700
C1149       C  0.20148474  0.84899225  0.83667842     0.16000
C1150       C  0.24229952  0.86798745  0.84738634    -0.18500
C1151       C  0.15749164  0.85923297  0.84795885    -0.20300
C1152       C  0.11651445  0.84425141  0.83562827    -0.12900
C1153       C  0.11899943  0.81819695  0.81203213     0.03800
C1154       C  0.16360576  0.80508445  0.80186344    -0.25000
H1155       H  0.32204832  0.82450780  0.80293935     0.08900
H1156       H  0.25114472  0.78957907  0.78438631     0.12500
H1157       H  0.23960757  0.89043832  0.86481396     0.12400
H1158       H  0.15473571  0.88032807  0.86584779     0.12100
H1159       H  0.08306607  0.85422420  0.84411890     0.12700
H1160       H  0.16685704  0.78402236  0.78397327     0.14600
C1161       C  0.79206155  0.06080522  0.78618478    -0.05400
C1162       C  0.79373290  0.03401429  0.81003839    -0.05300
C1163       C  0.75230542  0.01823974  0.82228654    -0.23500
C1164       C  0.70870326  0.02969884  0.81100810     0.18700
C1165       C  0.70696274  0.05308784  0.78609133     0.16000
C1166       C  0.74854722  0.06730353  0.77362313    -0.18500
C1167       C  0.66358530  0.06470479  0.77474218    -0.20300
C1168       C  0.62207033  0.05591254  0.78864101    -0.12900
C1169       C  0.62313148  0.03501153  0.81407054     0.03800
C1170       C  0.66688525  0.02038524  0.82469569    -0.25000
H1171       H  0.82654020  0.02828908  0.82006135     0.08900
H1172       H  0.75422905  0.99954559  0.84127055     0.12500
H1173       H  0.74664201  0.08701143  0.75489666     0.12400
H1174       H  0.66181931  0.08226221  0.75545487     0.12100
H1175       H  0.58925582  0.06662354  0.77974222     0.12700
H1176       H  0.66874762  0.00314496  0.84406316     0.14600
C1177       C  0.29161114  0.05916052  0.80652409    -0.05400
C1178       C  0.29058706  0.10117474  0.79007319    -0.05300
C1179       C  0.24810434  0.11842643  0.77980493    -0.23500
C1180       C  0.20621694  0.09422733  0.78619021     0.18700
C1181       C  0.20715770  0.05050724  0.80154601     0.16000
C1182       C  0.24987716  0.03262205  0.81096312    -0.18500
C1183       C  0.16521892  0.02669313  0.80822328    -0.20300
C1184       C  0.12231503  0.04690595  0.80021376    -0.12900
C1185       C  0.12085149  0.09094235  0.78522884     0.03800
C1186       C  0.16333884  0.11387803  0.77807360    -0.25000
H1187       H  0.32193800  0.12212441  0.78639970     0.08900
H1188       H  0.24771865  0.15193419  0.76780614     0.12500
H1189       H  0.25013701  0.99937507  0.82321954     0.12400
H1190       H  0.16557556  0.99298239  0.82007381     0.12100
H1191       H  0.09045947  0.02837668  0.80588297     0.12700
H1192       H  0.16337766  0.14781502  0.76641833     0.14600
C1193       C  0.62483560  0.92109322  0.66610415    -0.05400
C1194       C  0.62310379  0.89118649  0.68893984    -0.05300
C1195       C  0.66392930  0.87939297  0.70278621    -0.23500
C1196       C  0.70739524  0.89696398  0.69396931     0.18700
C1197       C  0.70970031  0.92812157  0.67156851     0.16000
C1198       C  0.66847006  0.94041868  0.65799003    -0.18500
C1199       C  0.75345057  0.94475975  0.66253995    -0.20300
C1200       C  0.79485521  0.92819540  0.67461867    -0.12900
C1201       C  0.79316970  0.89526686  0.69620518     0.03800
C1202       C  0.74879159  0.88185975  0.70643272    -0.25000
H1203       H  0.59037014  0.87596850  0.69577363     0.08900
H1204       H  0.66167125  0.85532777  0.72000112     0.12500
H1205       H  0.67071138  0.96409568  0.64063353     0.12400
H1206       H  0.75578138  0.96868078  0.64531378     0.12100
H1207       H  0.82805137  0.93900992  0.66622763     0.12700
H1208       H  0.74634078  0.85703850  0.72335309     0.14600
C1209       C  0.12759409  0.87904637  0.70079901    -0.05400
C1210       C  0.12738696  0.92264337  0.68546423    -0.05300
C1211       C  0.16934193  0.94222377  0.67594016    -0.23500
C1212       C  0.21201827  0.91805786  0.68129528     0.18700
C1213       C  0.21299245  0.87537786  0.69748213     0.16000
C1214       C  0.17102804  0.85668318  0.70741505    -0.18500
C1215       C  0.25570134  0.85093547  0.70257805    -0.20300
C1216       C  0.29691743  0.86702682  0.69037008    -0.12900
C1217       C  0.29592490  0.90812805  0.67323164     0.03800
C1218       C  0.25346185  0.93461628  0.66975846    -0.25000
H1219       H  0.09486140  0.94093680  0.68035243     0.08900
H1220       H  0.16828856  0.97536810  0.66365208     0.12500
H1221       H  0.17240746  0.82334552  0.71954349     0.12400
H1222       H  0.25689675  0.81822522  0.71517931     0.12100
H1223       H  0.32894676  0.84622871  0.69344104     0.12700
H1224       H  0.25207789  0.96718895  0.65702257     0.14600
C1225       C  0.62108788  0.09666749  0.64582800    -0.05400
C1226       C  0.61940662  0.12898159  0.66712319    -0.05300
C1227       C  0.66067969  0.14387340  0.67901581    -0.23500
C1228       C  0.70418082  0.12624835  0.66998161     0.18700
C1229       C  0.70662692  0.09467174  0.64834026     0.16000
C1230       C  0.66528763  0.08060134  0.63628427    -0.18500
C1231       C  0.75030021  0.07697965  0.63943529    -0.20300
C1232       C  0.79134292  0.08944080  0.65245398    -0.12900
C1233       C  0.78908822  0.11996794  0.67443106     0.03800
C1234       C  0.74519795  0.13902653  0.68259032    -0.25000
H1235       H  0.58629732  0.14188213  0.67491073     0.08900
H1236       H  0.65853826  0.16834165  0.69566501     0.12500
H1237       H  0.66781758  0.05590402  0.61975122     0.12400
H1238       H  0.75259717  0.05289036  0.62264669     0.12100
H1239       H  0.82445985  0.07465636  0.64566796     0.12700
H1240       H  0.74258429  0.16378137  0.69911301     0.14600
C1241       C  0.28647019  0.11147458  0.64416393    -0.05400
C1242       C  0.28775181  0.15092727  0.66171499    -0.05300
C1243       C  0.24616201  0.17055705  0.67234045    -0.23500
C1244       C  0.20261326  0.15076177  0.66580992     0.18700
C1245       C  0.20072387  0.11289412  0.64720975     0.16000
C1246       C  0.24225970  0.09429694  0.63624305    -0.18500
C1247       C  0.15746558  0.09274823  0.64065344    -0.20300
C1248       C  0.11642761  0.10860160  0.65324692    -0.12900
C1249       C  0.11773264  0.14514225  0.67254875     0.03800
C1250       C  0.16115119  0.16686523  0.67820679    -0.25000
H1251       H  0.32080240  0.16539193  0.66793582     0.08900
H1252       H  0.24816485  0.20010679  0.68640279     0.12500
H1253       H  0.23989221  0.06469627  0.62220775     0.12400
H1254       H  0.15553618  0.06361054  0.62632883     0.12100
H1255       H  0.08390079  0.09114572  0.64845909     0.12700
H1256       H  0.16298224  0.19546763  0.69283315     0.14600
C1257       C  0.65229254  0.65906534  0.53442191    -0.05400
C1258       C  0.61245439  0.65441792  0.55041491    -0.05300
C1259       C  0.59095760  0.69620685  0.56109466    -0.23500
C1260       C  0.60879009  0.74351843  0.55594020     0.18700
C1261       C  0.64965417  0.74896381  0.54068782     0.16000
C1262       C  0.67129485  0.70666660  0.53010217    -0.18500
C1263       C  0.66719900  0.79675242  0.53572419    -0.20300
C1264       C  0.64286088  0.83889646  0.54455026    -0.12900
C1265       C  0.60084787  0.83357793  0.55848516     0.03800
C1266       C  0.58519284  0.78559341  0.56494263    -0.25000
H1267       H  0.59740498  0.61849604  0.55439397     0.08900
H1268       H  0.55971666  0.69160333  0.57294090     0.12500
H1269       H  0.70247301  0.71104330  0.51817386     0.12400
H1270       H  0.69879418  0.80158407  0.52422596     0.12100
H1271       H  0.65552948  0.87537863  0.53938293     0.12700
H1272       H  0.55313400  0.78102077  0.57611629     0.14600
C1273       C  0.59114554  0.12739211  0.54454217    -0.05400
C1274       C  0.63747360  0.13077205  0.55299668    -0.05300
C1275       C  0.65952236  0.17679650  0.55360096    -0.23500
C1276       C  0.63538441  0.22043556  0.54626852     0.18700
C1277       C  0.58913809  0.21761899  0.53746911     0.16000
C1278       C  0.56782220  0.17129911  0.53613206    -0.22100
C1279       C  0.56476270  0.26126803  0.53035843    -0.20300
C1280       C  0.58688189  0.30721382  0.53064925    -0.12900
C1281       C  0.63362048  0.31018631  0.53815754     0.03800
C1282       C  0.65707842  0.26669296  0.54685008    -0.25000
H1283       H  0.65609979  0.09815909  0.56005814     0.08900
H1284       H  0.69515196  0.17840044  0.56036610     0.12500
H1285       H  0.53191937  0.17009062  0.52982543     0.12400
H1286       H  0.52908438  0.25964599  0.52367809     0.12100
H1287       H  0.56861005  0.33972234  0.52314356     0.12700
H1288       H  0.69342229  0.26852737  0.55237375     0.14600
C1289       C  0.58502791  0.84154522  0.93681688    -0.05400
C1290       C  0.63341453  0.84013502  0.93265673    -0.05300
C1291       C  0.65774694  0.79480874  0.93293288    -0.23500
C1292       C  0.63394053  0.74999832  0.93667406     0.18700
C1293       C  0.58533929  0.75078701  0.94055978     0.16000
C1294       C  0.56145215  0.79637016  0.94107890    -0.18500
C1295       C  0.56134750  0.70591583  0.94361267    -0.20300
C1296       C  0.58567797  0.66059222  0.94427495    -0.12900
C1297       C  0.63436491  0.65949521  0.94197676     0.03800
C1298       C  0.65799215  0.70446037  0.93713094    -0.25000
H1299       H  0.65225844  0.87392883  0.92864844     0.08900
H1300       H  0.69511213  0.79473135  0.92977981     0.12500
H1301       H  0.52393050  0.79625690  0.94353869     0.12400
H1302       H  0.52386819  0.70597729  0.94627173     0.12100
H1303       H  0.56675116  0.62682807  0.94821427     0.12700
H1304       H  0.69561072  0.70423745  0.93499895     0.14600
C1305       C  0.64697270  0.30831003  0.94157807    -0.05400
C1306       C  0.60703539  0.31385047  0.92608077    -0.05300
C1307       C  0.58522171  0.27243657  0.91599493    -0.23500
C1308       C  0.60287327  0.22465198  0.92126255     0.18700
C1309       C  0.64377908  0.21825497  0.93610666     0.16000
C1310       C  0.66571341  0.26014832  0.94609205    -0.18500
C1311       C  0.66107343  0.17001023  0.94126107    -0.20300
C1312       C  0.63654658  0.12843687  0.93293175    -0.12900
C1313       C  0.59459344  0.13476231  0.91931828     0.03800
C1314       C  0.57908383  0.18310896  0.91275187    -0.25000
H1315       H  0.59205902  0.35017138  0.92215805     0.08900
H1316       H  0.55386285  0.27773112  0.90452592     0.12500
H1317       H  0.69694278  0.25505812  0.95770952     0.12400
H1318       H  0.69265737  0.16443302  0.95249202     0.12100
H1319       H  0.64905081  0.09166466  0.93821404     0.12700
H1320       H  0.54703389  0.18845667  0.90185616     0.14600
C1321       C  0.79652760  0.62935031  0.89805014    -0.05400
C1322       C  0.80824700  0.67930971  0.89504180    -0.05300
C1323       C  0.80728402  0.70176587  0.86993890    -0.23500
C1324       C  0.79504172  0.67413705  0.84781222     0.18700
C1325       C  0.77994678  0.62501094  0.85121727     0.16000
C1326       C  0.77952412  0.60366686  0.87632634    -0.18500
C1327       C  0.77002323  0.59622201  0.82925463    -0.20300
C1328       C  0.78063326  0.61386727  0.80399838    -0.12900
C1329       C  0.79833228  0.66146288  0.80049692     0.03800
C1330       C  0.80222882  0.69272423  0.82225839    -0.25000
H1331       H  0.82011873  0.70002962  0.91169815     0.08900
H1332       H  0.81868152  0.73967543  0.86760426     0.12500
H1333       H  0.76857374  0.56556037  0.87871375     0.12400
H1334       H  0.75846334  0.55840407  0.83173832     0.12100
H1335       H  0.77879213  0.58907272  0.78753056     0.12700
H1336       H  0.81741853  0.72896721  0.81962579     0.14600
C1337       C  0.81072388  0.64581374  0.55992334    -0.05400
C1338       C  0.83847213  0.68799148  0.55875202    -0.05300
C1339       C  0.84254148  0.71754166  0.58099189    -0.23500
C1340       C  0.81907209  0.70486738  0.60453828     0.18700
C1341       C  0.78821232  0.66469887  0.60514133     0.16000
C1342       C  0.78385604  0.63583746  0.58268249    -0.18500
C1343       C  0.76565129  0.65134346  0.62886052    -0.20300
C1344       C  0.77838159  0.67327842  0.65251000    -0.12900
C1345       C  0.81265991  0.70968330  0.65237315     0.03800
C1346       C  0.82966872  0.72825134  0.62807327    -0.25000
H1347       H  0.85893225  0.69635454  0.54128829     0.08900
H1348       H  0.86618251  0.74847934  0.58027095     0.12500
H1349       H  0.76176032  0.60356001  0.58340811     0.12400
H1350       H  0.74140007  0.62094406  0.62948391     0.12100
H1351       H  0.76514577  0.65831295  0.67095415     0.12700
H1352       H  0.85621616  0.75648975  0.62793704     0.14600
C1353       C  0.78597239  0.24921316  0.82327636    -0.05400
C1354       C  0.75437303  0.28911211  0.82246783    -0.05300
C1355       C  0.74073895  0.31208478  0.84583856    -0.23500
C1356       C  0.76003406  0.29620549  0.86990553     0.18700
C1357       C  0.78695553  0.25217943  0.87108759     0.16000
C1358       C  0.79797578  0.22772469  0.84774496    -0.18500
C1359       C  0.80754893  0.23709035  0.89494457    -0.20300
C1360       C  0.80598229  0.26827576  0.91663791    -0.12900
C1361       C  0.78333999  0.31437481  0.91466935     0.03800
C1362       C  0.75766867  0.32654008  0.89194473    -0.25000
H1363       H  0.74487064  0.30616538  0.80381430     0.08900
H1364       H  0.71942569  0.34541569  0.84473626     0.12500
H1365       H  0.82242293  0.19678225  0.84831298     0.12400
H1366       H  0.82795119  0.20314430  0.89618322     0.12100
H1367       H  0.82514675  0.25800720  0.93419602     0.12700
H1368       H  0.73904290  0.36166109  0.89068434     0.14600
C1369       C  0.78847500  0.29797467  0.67749085    -0.05400
C1370       C  0.77298911  0.34705182  0.67445667    -0.05300
C1371       C  0.76321607  0.36643172  0.64946809    -0.23500
C1372       C  0.77111498  0.33761878  0.62711705     0.18700
C1373       C  0.78418233  0.28735740  0.62994029     0.16000
C1374       C  0.79120502  0.26735919  0.65531924    -0.18500
C1375       C  0.79414203  0.25954516  0.60732107    -0.20300
C1376       C  0.79431107  0.28241861  0.58227010    -0.12900
C1377       C  0.78401641  0.33317039  0.57965391     0.03800
C1378       C  0.77005007  0.35960539  0.60209176    -0.25000
H1379       H  0.77230079  0.37148162  0.69113620     0.08900
H1380       H  0.75340651  0.40515861  0.64747596     0.12500
H1381       H  0.80492144  0.22995550  0.65750210     0.12400
H1382       H  0.80411752  0.22084448  0.60914114     0.12100
H1383       H  0.80443676  0.26114444  0.56524760     0.12700
H1384       H  0.76072802  0.39852625  0.60027591     0.14600
C1385       C  0.29862905  0.84431307  0.91546619    -0.05400
C1386       C  0.25060706  0.84396490  0.92044497    -0.05300
C1387       C  0.22714953  0.79878439  0.92179168    -0.23500
C1388       C  0.25159289  0.75391585  0.91797966     0.18700
C1389       C  0.29923721  0.75452736  0.91121873     0.16000
C1390       C  0.32219147  0.79961534  0.90985928    -0.18500
C1391       C  0.32380922  0.70989490  0.90732474    -0.20300
C1392       C  0.30241519  0.66461690  0.91263841    -0.12900
C1393       C  0.25626490  0.66379647  0.92170017     0.03800
C1394       C  0.23016230  0.70841663  0.92257782    -0.25000
H1395       H  0.23179573  0.87812401  0.92421379     0.08900
H1396       H  0.19037120  0.79875850  0.92673179     0.12500
H1397       H  0.35909232  0.79977326  0.90510522     0.12400
H1398       H  0.36032981  0.71010202  0.90178031     0.12100
H1399       H  0.32296780  0.63079543  0.91177381     0.12700
H1400       H  0.19413808  0.70800853  0.92915497     0.14600
C1401       C  0.29685761  0.14418238  0.90120377    -0.05400
C1402       C  0.25348007  0.14105153  0.91393297    -0.05300
C1403       C  0.22878249  0.18433029  0.92030815    -0.23500
C1404       C  0.24769143  0.23099561  0.91439597     0.18700
C1405       C  0.28979054  0.23425818  0.90002733     0.16000
C1406       C  0.31343616  0.19087282  0.89303214    -0.18500
C1407       C  0.30942799  0.28070255  0.89464427    -0.20300
C1408       C  0.28938413  0.32342181  0.90518579    -0.12900
C1409       C  0.24912282  0.32019063  0.92089319     0.03800
C1410       C  0.22712103  0.27414591  0.92425294    -0.25000
H1411       H  0.24023319  0.10552839  0.92044373     0.08900
H1412       H  0.19636529  0.18134572  0.93125037     0.12500
H1413       H  0.34672895  0.19353878  0.88289624     0.12400
H1414       H  0.34166905  0.28366564  0.88353412     0.12100
H1415       H  0.30673544  0.35846051  0.90222999     0.12700
H1416       H  0.19547546  0.27138772  0.93594399     0.14600
C1417       C  0.25415220  0.65325707  0.55751118    -0.05400
C1418       C  0.29498216  0.64816163  0.57231300    -0.05300
C1419       C  0.31600183  0.68988591  0.58275624    -0.23500
C1420       C  0.29667386  0.73733440  0.57837318     0.18700
C1421       C  0.25419171  0.74263814  0.56486445     0.16000
C1422       C  0.23293744  0.70054306  0.55482816    -0.18500
C1423       C  0.23514089  0.79022080  0.56032469    -0.20300
C1424       C  0.25986005  0.83243921  0.56728441    -0.12900
C1425       C  0.30370763  0.82751424  0.57906476     0.03800
C1426       C  0.32064184  0.77970792  0.58577061    -0.25000
H1427       H  0.31179164  0.61231036  0.57479396     0.08900
H1428       H  0.34849209  0.68528308  0.59325620     0.12500
H1429       H  0.20085236  0.70498010  0.54389142     0.12400
H1430       H  0.20231676  0.79482631  0.55015638     0.12100
H1431       H  0.24612615  0.86869979  0.56195360     0.12700
H1432       H  0.35417812  0.77541464  0.59525472     0.14600
C1433       C  0.24575312  0.30693492  0.55954997    -0.05400
C1434       C  0.28698904  0.30746040  0.57413632    -0.05300
C1435       C  0.30935615  0.26283640  0.58118953    -0.23500
C1436       C  0.29122334  0.21739531  0.57321428     0.18700
C1437       C  0.24782797  0.21642790  0.56049271     0.16000
C1438       C  0.22481909  0.26106653  0.55447838    -0.18500
C1439       C  0.22984816  0.17113685  0.55219312    -0.20300
C1440       C  0.25620198  0.12742286  0.55487542    -0.12900
C1441       C  0.30065718  0.12867770  0.56591744     0.03800
C1442       C  0.31710983  0.17336169  0.57607633    -0.25000
H1443       H  0.30352400  0.34213335  0.57850779     0.08900
H1444       H  0.34234593  0.26400632  0.59133770     0.12500
H1445       H  0.19226645  0.26002293  0.54384650     0.12400
H1446       H  0.19642972  0.16992673  0.54249522     0.12100
H1447       H  0.24291850  0.09326902  0.54720915     0.12700
H1448       H  0.35113380  0.17416378  0.58516040     0.14600
C1449       C  0.08173556  0.67659568  0.81921603    -0.05400
C1450       C  0.12753122  0.66057129  0.82412726    -0.05300
C1451       C  0.14281702  0.65519518  0.85024797    -0.23500
C1452       C  0.11208314  0.66504774  0.87137415     0.18700
C1453       C  0.06726493  0.68451926  0.86622776     0.16000
C1454       C  0.05313394  0.69133691  0.84032569    -0.18500
C1455       C  0.03545366  0.69243405  0.88691041    -0.20300
C1456       C  0.04600385  0.67580905  0.91230939    -0.12900
C1457       C  0.08934789  0.65381066  0.91737069     0.03800
C1458       C  0.12333896  0.65129467  0.89725960    -0.25000
H1459       H  0.15041078  0.65016116  0.80805882     0.08900
H1460       H  0.17752570  0.64062392  0.85394232     0.12500
H1461       H  0.01822012  0.70543135  0.83656974     0.12400
H1462       H  0.00096590  0.70744460  0.88303141     0.12100
H1463       H  0.01938165  0.67699402  0.92750836     0.12700
H1464       H  0.15648272  0.63309529  0.90114809     0.14600
C1465       C  0.09749447  0.64488362  0.56463613    -0.05400
C1466       C  0.08719971  0.69561941  0.56297870    -0.05300
C1467       C  0.08915626  0.72454056  0.58556948    -0.23500
C1468       C  0.10212606  0.70301947  0.60986564     0.18700
C1469       C  0.11665964  0.65301109  0.61104848     0.16000
C1470       C  0.11419497  0.62437397  0.58845890    -0.18500
C1471       C  0.13021874  0.63156473  0.63520412    -0.20300
C1472       C  0.12304783  0.65727482  0.65856981    -0.12900
C1473       C  0.10273082  0.70467606  0.65783486     0.03800
C1474       C  0.09653694  0.72903077  0.63332597    -0.25000
H1475       H  0.07624929  0.71237755  0.54451596     0.08900
H1476       H  0.07876616  0.76317123  0.58427192     0.12500
H1477       H  0.12438626  0.58561270  0.58955058     0.12400
H1478       H  0.14245375  0.59349568  0.63625974     0.12100
H1479       H  0.12811726  0.63794473  0.67717821     0.12700
H1480       H  0.08140206  0.76600355  0.63267389     0.14600
C1481       C  0.10532868  0.33615955  0.91591587    -0.05400
C1482       C  0.08787265  0.28828202  0.91955200    -0.05300
C1483       C  0.08211327  0.25778105  0.89788735    -0.23500
C1484       C  0.09396243  0.27496485  0.87250692     0.18700
C1485       C  0.11576768  0.32119929  0.86916924     0.16000
C1486       C  0.12150305  0.35133569  0.89094270    -0.18500
C1487       C  0.12794799  0.33827286  0.84384371    -0.20300
C1488       C  0.11320930  0.31280464  0.82178157    -0.12900
C1489       C  0.08671004  0.26990202  0.82498387     0.03800
C1490       C  0.08036443  0.24910451  0.85029674    -0.25000
H1491       H  0.07661300  0.27550029  0.93884862     0.08900
H1492       H  0.06614133  0.22196580  0.90078377     0.12500
H1493       H  0.13674479  0.38761695  0.88828471     0.12400
H1494       H  0.14545881  0.37328158  0.84106489     0.12100
H1495       H  0.11840950  0.32928134  0.80243129     0.12700
H1496       H  0.06031467  0.21556609  0.85277110     0.14600
C1497       C  0.08156384  0.30076501  0.66986826    -0.05400
C1498       C  0.11119343  0.34138577  0.66821323    -0.05300
C1499       C  0.12687293  0.35817469  0.64357388    -0.23500
C1500       C  0.11214089  0.33491560  0.62060029     0.18700
C1501       C  0.08556137  0.29142383  0.62242806     0.16000
C1502       C  0.07113845  0.27418100  0.64719422    -0.18500
C1503       C  0.07037615  0.26861332  0.59940784    -0.20300
C1504       C  0.07803626  0.29123642  0.57477098    -0.12900
C1505       C  0.10106941  0.33660594  0.57314570     0.03800
C1506       C  0.12013589  0.35675139  0.59593351    -0.25000
H1507       H  0.11912773  0.36223400  0.68559160     0.08900
H1508       H  0.14763142  0.39135703  0.64235847     0.12500
H1509       H  0.04800091  0.24279722  0.64867419     0.12400
H1510       H  0.05033860  0.23491889  0.60059029     0.12100
H1511       H  0.06368923  0.27498842  0.55733028     0.12700
H1512       H  0.13884762  0.39134171  0.59457045     0.14600
loop_ 
_geom_bond_atom_site_label_1 
_geom_bond_atom_site_label_2 
_geom_bond_distance 
_geom_bond_site_symmetry_2 
_ccdc_geom_bond_type 
O1          Zr13   2.489       .  S
O1            C3   1.297       .  A
O2         Zr795   2.375   1_554  S
O2            C3   1.277       .  A
C3          C677   1.483       .  S
O4          Zr16   2.441       .  S
O4            C6   1.286       .  A
O5          Zr40   2.418   1_554  S
O5            C6   1.283       .  A
C6          C709   1.465       .  S
O7          Zr16   2.427       .  S
O7            C9   1.285       .  A
O8         Zr795   2.418   1_554  S
O8            C9   1.282       .  A
C9          C749   1.465       .  S
O10         Zr13   2.485       .  S
O10          C12   1.297       .  A
O11         Zr40   2.382   1_554  S
O11          C12   1.279       .  A
C12         C661   1.485       .  S
Zr13         O14   2.436       .  S
Zr13         O15   2.433       .  S
Zr13         O19   2.365       .  S
Zr13         O20   2.366       .  S
Zr13        O799   2.385   1_554  S
Zr13        O801   2.379   1_554  S
O14          H57   0.991       .  S
O15          H56   0.990       .  S
O15          H60   0.990       .  S
Zr16         O17   2.441       .  S
Zr16         O18   2.434       .  S
Zr16         O20   2.373       .  S
Zr16         O19   2.370       .  S
Zr16         O44   2.386   1_554  S
Zr16         O46   2.380   1_554  S
O17          H58   0.991       .  S
O17          H61   0.990       .  S
O18          H51   0.990       .  S
O19        Zr795   2.362   1_554  S
O20         Zr40   2.374   1_554  S
O20          H47   0.963       .  S
O21         Zr33   2.492       .  S
O21          C23   1.298       .  A
O22        Zr796   2.375       .  S
O22          C23   1.278       .  A
C23         C637   1.479       .  S
O24         Zr36   2.446       .  S
O24          C26   1.288       .  A
O25         Zr39   2.416       .  S
O25          C26   1.283       .  A
C26         C725   1.472       .  S
O27         Zr36   2.446       .  S
O27          C29   1.288       .  A
O28        Zr796   2.427       .  S
O28          C29   1.285       .  A
C29         C701   1.463       .  S
O30         Zr33   2.465       .  S
O30          C32   1.292       .  A
O31         Zr39   2.384       .  S
O31          C32   1.279       .  A
C32         C653   1.480       .  S
Zr33         O34   2.440       .  S
Zr33         O35   2.433       .  S
Zr33         O41   2.350       .  S
Zr33         O42   2.376       .  S
Zr33         O45   2.383       .  S
Zr33         O43   2.380       .  S
O34          H54   0.990       .  S
O34          H59   0.991       .  S
O35          H55   0.990       .  S
Zr36         O37   2.435       .  S
Zr36         O38   2.435       .  S
Zr36         O42   2.368       .  S
Zr36         O41   2.374       .  S
Zr36        O802   2.391       .  S
Zr36        O800   2.389       .  S
O37          H53   0.991       .  S
O38          H52   0.990       .  S
O38          H62   0.990       .  S
Zr39        O758   2.375       .  S
Zr39        O764   2.436       .  S
Zr39         O42   2.368       .  S
Zr39         O45   2.395       .  S
Zr39        O800   2.383       .  S
Zr39        O775   2.245       .  S
Zr40        O778   2.368       .  S
Zr40        O784   2.414       .  S
Zr40         O46   2.377       .  S
Zr40        O797   2.377       .  S
Zr40        O799   2.394       .  S
O41        Zr796   2.376       .  S
O41          H49   0.964       .  S
O43        Zr769   2.377       .  S
O43        Zr796   2.397       .  S
O44        Zr792   2.383       .  S
O44        Zr795   2.384       .  S
O44          H48   0.966       .  S
O45        Zr769   2.371       .  S
O45          H50   0.966       .  S
O46        Zr792   2.377       .  S
O63         Zr75   2.418       .  S
O63          C65   1.285       .  A
O64        Zr101   2.447       .  S
O64         C821   1.289       .  A
C65         O820   1.286       .  A
C65         C621   1.478       .  S
O66         Zr78   2.476       .  S
O66          C68   1.295       .  A
O67        Zr858   2.387   1_554  S
O67          C68   1.280       .  A
C68         C501   1.480       .  S
O69         Zr78   2.490       .  S
O69          C71   1.296       .  A
O70        Zr101   2.361       .  S
O70         C827   1.275       .  A
C71         O826   1.275       .  A
C71         C525   1.475       .  S
O72         Zr75   2.446       .  S
O72          C74   1.286       .  A
O73        Zr858   2.429   1_554  S
O73          C74   1.285       .  A
C74         C581   1.469       .  S
Zr75         O76   2.439       .  S
Zr75         O77   2.437       .  S
Zr75         O82   2.370       .  S
Zr75        O861   2.380   1_554  S
Zr75        O863   2.380   1_554  S
Zr75         O81   2.276       .  S
O76         H119   0.990       .  S
O77         H118   0.991       .  S
O77         H122   0.990       .  S
Zr78         O79   2.435       .  S
Zr78         O80   2.435       .  S
Zr78         O82   2.362       .  S
Zr78        O862   2.371   1_554  S
Zr78        O864   2.378   1_554  S
Zr78         O81   2.277       .  S
O79         H120   0.989       .  S
O79         H123   0.990       .  S
O80         H113   0.991       .  S
O81        Zr857   2.251   1_554  S
O82        Zr858   2.382   1_554  S
O82         H109   0.962       .  S
O83         Zr95   2.434       .  S
O83          C85   1.287       .  A
O84        Zr102   2.483       .  S
O84          C85   1.296       .  A
C85         C565   1.496       .  S
O86         Zr98   2.476       .  S
O86          C88   1.295       .  A
O87        Zr101   2.385       .  S
O87          C88   1.280       .  A
C88         C549   1.483       .  S
O89         Zr98   2.512       .  S
O89          C91   1.301       .  A
O90        Zr102   2.347       .  S
O90          C91   1.274       .  A
C91         C541   1.483       .  S
O92         Zr95   2.433       .  S
O92          C94   1.285       .  A
O93        Zr101   2.437       .  S
O93          C94   1.285       .  A
C94         C605   1.473       .  S
Zr95         O96   2.439       .  S
Zr95         O97   2.434       .  S
Zr95        O103   2.392       .  S
Zr95        O104   2.365       .  S
Zr95        O107   2.385       .  S
Zr95        O105   2.382       .  S
O96         H116   0.990       .  S
O96         H121   0.990       .  S
O97         H117   0.990       .  S
Zr98         O99   2.436       .  S
Zr98        O100   2.436       .  S
Zr98        O104   2.377       .  S
Zr98        O103   2.354       .  S
Zr98        O108   2.370       .  S
Zr98        O106   2.378       .  S
O99         H115   0.990       .  S
O100        H114   0.990       .  S
O100        H124   0.990       .  S
Zr101       O104   2.356       .  S
Zr101       O106   2.403       .  S
Zr101       O107   2.383       .  S
Zr101       O837   2.253       .  S
Zr102       O823   2.399       .  S
Zr102       O829   2.437       .  S
Zr102       O103   2.375       .  S
Zr102       O105   2.378       .  S
Zr102       O108   2.408       .  S
Zr102       O838   2.391       .  S
O103        H111   0.961       .  S
O105       Zr831   2.382       .  S
O106       Zr834   2.367       .  S
O106        H110   0.965       .  S
O107       Zr831   2.385       .  S
O107        H112   0.966       .  S
O108       Zr834   2.380       .  S
O125       Zr137   2.503       .  S
O125        C127   1.301       .  A
O126       Zr163   2.362   1_545  S
O126        C127   1.276       .  A
C127        C485   1.485       .  S
O128       Zr140   2.434       .  S
O128        C130   1.286       .  A
O129       Zr164   2.458   1_545  S
O129        C130   1.291       .  A
C130        C517   1.483       .  S
O131       Zr140   2.425       .  S
O131        C133   1.284       .  A
O132       Zr163   2.444   1_545  S
O132        C133   1.287       .  A
C133        C685   1.480       .  S
O134       Zr137   2.514       .  S
O134        C136   1.302       .  A
O135       Zr164   2.350   1_545  S
O135        C136   1.274       .  A
C136        C469   1.480       .  S
Zr137       O138   2.436       .  S
Zr137       O139   2.435       .  S
Zr137       O143   2.373       .  S
Zr137       O144   2.349       .  S
Zr137       O167   2.374       .  S
Zr137       O169   2.370       .  S
O138        H181   0.990       .  S
O139        H180   0.990       .  S
O139        H184   0.990       .  S
Zr140       O141   2.439       .  S
Zr140       O142   2.430       .  S
Zr140       O144   2.377       .  S
Zr140       O143   2.369       .  S
Zr140       O168   2.382   1_545  S
Zr140       O170   2.376   1_545  S
O141        H182   0.990       .  S
O141        H185   0.991       .  S
O142        H175   0.990       .  S
O143       Zr163   2.375   1_545  S
O144       Zr164   2.375   1_545  S
O144        H171   0.962       .  S
O145       Zr157   2.503       .  S
O145        C147   1.300       .  A
O146       Zr164   2.371       .  S
O146        C147   1.277       .  A
C147        C437   1.490       .  S
O148       Zr160   2.399       .  S
O148        C150   1.279       .  A
O149       Zr163   2.446       .  S
O149        C150   1.288       .  A
C150        C669   1.474       .  S
O151       Zr160   2.401       .  S
O151        C153   1.280       .  A
O152       Zr164   2.455       .  S
O152        C153   1.289       .  A
C153        C509   1.469       .  S
O154       Zr157   2.502       .  S
O154        C156   1.300       .  A
O155       Zr163   2.394       .  S
O155        C156   1.281       .  A
C156        C461   1.498       .  S
Zr157       O158   2.434       .  S
Zr157       O159   2.434       .  S
Zr157       O165   2.382       .  S
Zr157       O166   2.384       .  S
Zr157       O169   2.364   1_565  S
Zr157       O167   2.373   1_565  S
O158        H178   0.990       .  S
O158        H183   0.990       .  S
O159        H179   0.990       .  S
Zr160       O161   2.441       .  S
Zr160       O162   2.436       .  S
Zr160       O166   2.379       .  S
Zr160       O165   2.380       .  S
Zr160       O170   2.376       .  S
Zr160       O168   2.375       .  S
O161        H177   0.990       .  S
O162        H176   0.990       .  S
O162        H186   0.989       .  S
Zr163       O166   2.372       .  S
Zr163       O168   2.380       .  S
Zr163       O169   2.405   1_565  S
Zr164       O165   2.380       .  S
Zr164       O167   2.404   1_565  S
Zr164       O170   2.365       .  S
O165        H173   0.965       .  S
O168        H172   0.967       .  S
O169        H174   0.964       .  S
O187       Zr199   2.390       .  S
O187        C189   1.278       .  A
O188       Zr225   2.454   1_545  S
O188        C189   1.290       .  A
C189        C645   1.474       .  S
O190       Zr202   2.517       .  S
O190        C192   1.303       .  A
O191       Zr226   2.362   1_545  S
O191        C192   1.276       .  A
C192        C413   1.495       .  S
O193       Zr202   2.511       .  S
O193        C195   1.302       .  A
O194       Zr225   2.384   1_545  S
O194        C195   1.279       .  A
C195        C421   1.497       .  S
O196       Zr199   2.404       .  S
O196        C198   1.280       .  A
O197       Zr226   2.454   1_545  S
O197        C198   1.290       .  A
C198        C557   1.466       .  S
Zr199       O200   2.435       .  S
Zr199       O201   2.430       .  S
Zr199       O205   2.377       .  S
Zr199       O206   2.373       .  S
Zr199       O229   2.374   1_545  S
Zr199       O231   2.374   1_545  S
O200        H243   0.991       .  S
O201        H242   0.990       .  S
O201        H246   0.990       .  S
Zr202       O203   2.436       .  S
Zr202       O204   2.434       .  S
Zr202       O206   2.372       .  S
Zr202       O205   2.384       .  S
Zr202       O230   2.371   1_545  S
Zr202       O232   2.379   1_545  S
O203        H244   0.990       .  S
O203        H247   0.990       .  S
O204        H237   0.990       .  S
O205       Zr225   2.377   1_545  S
O206       Zr226   2.377   1_545  S
O206        H233   0.965       .  S
O207       Zr219   2.419       .  S
O207        C209   1.283       .  A
O208       Zr226   2.448       .  S
O208        C209   1.289       .  A
C209        C533   1.474       .  S
O210       Zr222   2.512       .  S
O210        C212   1.302       .  A
O211       Zr225   2.378       .  S
O211        C212   1.279       .  A
C212        C389   1.497       .  S
O213       Zr222   2.510       .  S
O213        C215   1.301       .  A
O214       Zr226   2.370       .  S
O214        C215   1.278       .  A
C215        C373   1.487       .  S
O216       Zr219   2.416       .  S
O216        C218   1.283       .  A
O217       Zr225   2.447       .  S
O217        C218   1.289       .  A
C218        C629   1.480       .  S
Zr219       O220   2.439       .  S
Zr219       O221   2.426       .  S
Zr219       O227   2.379       .  S
Zr219       O228   2.370       .  S
Zr219       O231   2.374       .  S
Zr219       O229   2.369       .  S
O220        H240   0.990       .  S
O220        H245   0.990       .  S
O221        H241   0.990       .  S
Zr222       O223   2.434       .  S
Zr222       O224   2.435       .  S
Zr222       O228   2.369       .  S
Zr222       O227   2.364       .  S
Zr222       O232   2.377       .  S
Zr222       O230   2.366       .  S
O223        H239   0.990       .  S
O224        H238   0.990       .  S
O224        H248   0.990       .  S
Zr225       O228   2.367       .  S
Zr225       O230   2.403       .  S
Zr225       O231   2.381       .  S
Zr226       O227   2.373       .  S
Zr226       O229   2.366       .  S
Zr226       O232   2.405       .  S
O227        H235   0.963       .  S
O230        H234   0.965       .  S
O231        H236   0.966       .  S
O249       Zr261   2.483   1_455  S
O249        C251   1.295       .  A
O250       Zr287   2.376       .  S
O250        C251   1.279       .  A
C251        C493   1.486       .  S
O252       Zr264   2.428       .  S
O252        C254   1.283       .  A
O253       Zr288   2.427       .  S
O253        C254   1.284       .  A
C254        C613   1.457       .  S
O255       Zr264   2.429   1_455  S
O255        C257   1.285       .  A
O256       Zr287   2.421       .  S
O256        C257   1.283       .  A
C257        C741   1.459       .  S
O258       Zr261   2.503       .  S
O258        C260   1.299       .  A
O259       Zr288   2.360       .  S
O259        C260   1.275       .  A
C260        C477   1.487       .  S
Zr261       O262   2.436       .  S
Zr261       O263   2.437       .  S
Zr261       O267   2.376   1_655  S
Zr261       O268   2.365       .  S
Zr261       O291   2.375       .  S
Zr261       O293   2.386   1_655  S
O262        H305   0.990       .  S
O263        H304   0.990       .  S
O263        H308   0.990       .  S
Zr264       O265   2.443       .  S
Zr264       O266   2.437       .  S
Zr264       O268   2.380       .  S
Zr264       O267   2.366   1_655  S
Zr264       O292   2.376   1_655  S
Zr264       O294   2.378       .  S
O265        H306   0.991       .  S
O265        H309   0.990       .  S
O266        H299   0.990       .  S
O267       Zr287   2.368       .  S
O268       Zr288   2.379       .  S
O268        H295   0.964       .  S
O269       Zr281   2.501       .  S
O269        C271   1.300       .  A
O270       Zr288   2.365       .  S
O270        C271   1.276       .  A
C271        C405   1.489       .  S
O272       Zr284   2.407   1_455  S
O272        C274   1.281       .  A
O273       Zr287   2.453       .  S
O273        C274   1.289       .  A
C274        C733   1.473       .  S
O275       Zr284   2.415       .  S
O275        C277   1.281       .  A
O276       Zr288   2.439       .  S
O276        C277   1.286       .  A
C277        C597   1.463       .  S
O278       Zr281   2.509   1_455  S
O278        C280   1.301       .  A
O279       Zr287   2.366       .  S
O279        C280   1.277       .  A
C280        C429   1.492       .  S
Zr281       O282   2.434       .  S
Zr281       O283   2.434       .  S
Zr281       O289   2.374       .  S
Zr281       O290   2.372   1_655  S
Zr281       O293   2.378   1_655  S
Zr281       O291   2.379       .  S
O282        H302   0.990       .  S
O282        H307   0.990       .  S
O283        H303   0.990       .  S
Zr284       O285   2.437       .  S
Zr284       O286   2.436       .  S
Zr284       O290   2.366   1_655  S
Zr284       O289   2.375       .  S
Zr284       O294   2.375       .  S
Zr284       O292   2.376   1_655  S
O285        H301   0.991       .  S
O286        H300   0.990       .  S
O286        H310   0.990   1_655  S
Zr287       O290   2.363       .  S
Zr287       O292   2.376       .  S
Zr287       O293   2.399       .  S
Zr288       O289   2.375       .  S
Zr288       O291   2.391       .  S
Zr288       O294   2.372       .  S
O289        H297   0.964       .  S
O292        H296   0.967       .  S
O293        H298   0.966       .  S
O311       Zr323   2.418   1_455  S
O311        C313   1.276       .  A
O312       Zr349   2.439       .  S
O312        C313   1.283       .  A
C313        C717   1.470       .  S
O314       Zr326   2.521       .  S
O314        C316   1.304       .  A
O315       Zr350   2.374       .  S
O315        C316   1.278       .  A
C316        C445   1.497       .  S
O317       Zr326   2.521   1_455  S
O317        C319   1.304       .  A
O318       Zr349   2.361       .  S
O318        C319   1.275       .  A
C319        C453   1.493       .  S
O320       Zr323   2.383       .  S
O320        C322   1.276       .  A
O321       Zr350   2.487       .  S
O321        C322   1.296       .  A
C322        C589   1.482       .  S
Zr323       O324   2.437       .  S
Zr323       O325   2.434   1_655  S
Zr323       O329   2.355   1_655  S
Zr323       O330   2.381       .  S
Zr323       O353   2.392       .  S
Zr323       O355   2.379   1_655  S
O324        H367   0.991       .  S
O325        H366   0.990       .  S
O325        H370   0.991   1_455  S
Zr326       O327   2.437       .  S
Zr326       O328   2.434       .  S
Zr326       O330   2.377       .  S
Zr326       O329   2.367   1_655  S
Zr326       O354   2.387   1_655  S
Zr326       O356   2.377       .  S
O327        H368   0.990       .  S
O327        H371   0.990       .  S
O328        H361   0.990       .  S
O329       Zr349   2.368       .  S
O330       Zr350   2.386       .  S
O330        H357   0.964       .  S
O331       Zr343   2.428       .  S
O331        C333   1.283       .  A
O332       Zr350   2.456       .  S
O332        C333   1.290       .  A
C333        C573   1.474       .  S
O334       Zr346   2.525   1_455  S
O334        C336   1.304       .  A
O335       Zr349   2.359       .  S
O335        C336   1.275       .  A
C336        C397   1.493       .  S
O337       Zr346   2.500       .  S
O337        C339   1.300       .  A
O338       Zr350   2.378       .  S
O338        C339   1.279       .  A
C339        C381   1.490       .  S
O340       Zr343   2.423   1_455  S
O340        C342   1.284       .  A
O341       Zr349   2.432       .  S
O341        C342   1.283       .  A
C342        C693   1.466       .  S
Zr343       O344   2.444       .  S
Zr343       O345   2.438   1_655  S
Zr343       O351   2.381       .  S
Zr343       O355   2.375   1_655  S
Zr343       O353   2.376       .  S
Zr343       O352   2.273   1_655  S
O344        H364   0.991       .  S
O344        H369   0.990   1_655  S
O345        H365   0.990   1_455  S
Zr346       O347   2.435       .  S
Zr346       O348   2.437       .  S
Zr346       O351   2.378       .  S
Zr346       O356   2.377       .  S
Zr346       O354   2.370   1_655  S
Zr346       O352   2.277   1_655  S
O347        H363   0.990       .  S
O348        H362   0.990       .  S
O348        H372   0.990       .  S
Zr349       O354   2.402       .  S
Zr349       O355   2.382       .  S
Zr349       O352   2.247       .  S
Zr350       O351   2.394       .  S
Zr350       O353   2.379       .  S
Zr350       O356   2.408       .  S
O351        H359   0.959       .  S
O354        H358   0.965       .  S
O355        H360   0.966       .  S
C373        C374   1.402       .  A
C373        C378   1.416       .  A
C374        C375   1.403       .  A
C374        H383   1.083       .  S
C375        C376   1.408       .  A
C375        H384   1.084       .  S
C376        C382   1.403       .  A
C376        C377   1.408       .  A
C377        C379   1.407       .  A
C377        C378   1.403       .  A
C378        H385   1.085       .  S
C379        C380   1.402       .  A
C379        H386   1.084       .  S
C380        C381   1.403       .  A
C380        H387   1.083       .  S
C381        C382   1.417       .  A
C382        H388   1.084       .  S
C389        C390   1.404       .  A
C389        C394   1.421       .  A
C390        C391   1.404       .  A
C390        H399   1.083       .  S
C391        C392   1.409       .  A
C391        H400   1.084       .  S
C392        C398   1.403       .  A
C392        C393   1.406       .  A
C393        C395   1.411       .  A
C393        C394   1.405       .  A
C394        H401   1.084       .  S
C395        C396   1.407       .  A
C395        H402   1.083       .  S
C396        C397   1.402       .  A
C396        H403   1.083       .  S
C397        C398   1.419       .  A
C398        H404   1.084       .  S
C405        C406   1.402       .  A
C405        C410   1.419       .  A
C406        C407   1.402       .  A
C406        H415   1.083       .  S
C407        C408   1.409       .  A
C407        H416   1.084       .  S
C408        C414   1.401       .  A
C408        C409   1.406       .  A
C409        C411   1.409       .  A
C409        C410   1.402       .  A
C410        H417   1.083       .  S
C411        C412   1.404       .  A
C411        H418   1.083       .  S
C412        C413   1.403       .  A
C412        H419   1.083       .  S
C413        C414   1.420       .  A
C414        H420   1.084       .  S
C421        C422   1.404       .  A
C421        C426   1.420       .  A
C422        C423   1.404       .  A
C422        H431   1.083       .  S
C423        C424   1.409       .  A
C423        H432   1.084       .  S
C424        C430   1.404       .  A
C424        C425   1.406       .  A
C425        C427   1.409       .  A
C425        C426   1.404       .  A
C426        H433   1.084       .  S
C427        C428   1.404       .  A
C427        H434   1.083       .  S
C428        C429   1.403       .  A
C428        H435   1.083       .  S
C429        C430   1.419       .  A
C430        H436   1.084       .  S
C437        C438   1.402       .  A
C437        C442   1.417       .  A
C438        C439   1.405       .  A
C438        H447   1.083       .  S
C439        C440   1.410       .  A
C439        H448   1.083       .  S
C440        C446   1.406       .  A
C440        C441   1.407       .  A
C441        C443   1.408       .  A
C441        C442   1.402       .  A
C442        H449   1.085       .  S
C443        C444   1.403       .  A
C443        H450   1.084       .  S
C444        C445   1.403       .  A
C444        H451   1.083       .  S
C445        C446   1.421       .  A
C446        H452   1.084       .  S
C453        C454   1.402       .  A
C453        C458   1.420       .  A
C454        C455   1.404       .  A
C454        H463   1.083       .  S
C455        C456   1.408       .  A
C455        H464   1.083       .  S
C456        C462   1.406       .  A
C456        C457   1.407       .  A
C457        C459   1.408       .  A
C457        C458   1.406       .  A
C458        H465   1.084       .  S
C459        C460   1.404       .  A
C459        H466   1.084       .  S
C460        C461   1.405       .  A
C460        H467   1.083       .  S
C461        C462   1.418       .  A
C462        H468   1.084       .  S
C469        C470   1.400       .  A
C469        C474   1.417       .  A
C470        C471   1.401       .  A
C470        H479   1.083       .  S
C471        C472   1.408       .  A
C471        H480   1.083       .  S
C472        C478   1.398       .  A
C472        C473   1.406       .  A
C473        C475   1.409       .  A
C473        C474   1.400       .  A
C474        H481   1.084       .  S
C475        C476   1.404       .  A
C475        H482   1.084       .  S
C476        C477   1.402       .  A
C476        H483   1.083       .  S
C477        C478   1.416       .  A
C478        H484   1.084       .  S
C485        C486   1.401       .  A
C485        C490   1.419       .  A
C486        C487   1.398       .  A
C486        H495   1.083       .  S
C487        C488   1.406       .  A
C487        H496   1.084       .  S
C488        C494   1.395       .  A
C488        C489   1.406       .  A
C489        C491   1.409       .  A
C489        C490   1.401       .  A
C490        H497   1.084       .  S
C491        C492   1.404       .  A
C491        H498   1.084       .  S
C492        C493   1.404       .  A
C492        H499   1.083       .  S
C493        C494   1.414       .  A
C494        H500   1.084       .  S
C501        C502   1.402       .  A
C501        C506   1.415       .  A
C502        C503   1.395       .  A
C502        H511   1.083       .  S
C503        C504   1.403       .  A
C503        H512   1.084       .  S
C504        C510   1.395       .  A
C504        C505   1.410       .  A
C505        C507   1.409       .  A
C505        C506   1.402       .  A
C506        H513   1.084       .  S
C507        C508   1.404       .  A
C507        H514   1.083       .  S
C508        C509   1.400       .  A
C508        H515   1.083       .  S
C509        C510   1.406       .  A
C510        H516   1.085       .  S
C517        C518   1.403       .  A
C517        C522   1.413       .  A
C518        C519   1.405       .  A
C518        H527   1.083       .  S
C519        C520   1.409       .  A
C519        H528   1.084       .  S
C520        C526   1.402       .  A
C520        C521   1.408       .  A
C521        C523   1.407       .  A
C521        C522   1.398       .  A
C522        H529   1.085       .  S
C523        C524   1.400       .  A
C523        H530   1.084       .  S
C524        C525   1.401       .  A
C524        H531   1.083       .  S
C525        C526   1.414       .  A
C526        H532   1.084       .  S
C533        C534   1.400       .  A
C533        C538   1.411       .  A
C534        C535   1.403       .  A
C534        H543   1.083       .  S
C535        C536   1.410       .  A
C535        H544   1.083       .  S
C536        C542   1.400       .  A
C536        C537   1.407       .  A
C537        C539   1.408       .  A
C537        C538   1.397       .  A
C538        H545   1.085       .  S
C539        C540   1.401       .  A
C539        H546   1.084       .  S
C540        C541   1.400       .  A
C540        H547   1.083       .  S
C541        C542   1.418       .  A
C542        H548   1.085       .  S
C549        C550   1.403       .  A
C549        C554   1.413       .  A
C550        C551   1.401       .  A
C550        H559   1.083       .  S
C551        C552   1.407       .  A
C551        H560   1.084       .  S
C552        C558   1.399       .  A
C552        C553   1.409       .  A
C553        C555   1.408       .  A
C553        C554   1.398       .  A
C554        H561   1.084       .  S
C555        C556   1.400       .  A
C555        H562   1.084       .  S
C556        C557   1.398       .  A
C556        H563   1.083       .  S
C557        C558   1.409       .  A
C558        H564   1.085       .  S
C565        C566   1.406       .  A
C565        C570   1.415       .  A
C566        C567   1.411       .  A
C566        H575   1.083       .  S
C567        C568   1.411       .  A
C567        H576   1.084       .  S
C568        C574   1.413       .  A
C568        C569   1.409       .  A
C569        C571   1.405       .  A
C569        C570   1.401       .  A
C570        H577   1.084       .  S
C571        C572   1.397       .  A
C571        H578   1.084       .  S
C572        C573   1.402       .  A
C572        H579   1.083       .  S
C573        C574   1.415       .  A
C574        H580   1.084       .  S
C581        C582   1.398       .  A
C581        C586   1.410       .  A
C582        C583   1.402       .  A
C582        H591   1.083       .  S
C583        C584   1.410       .  A
C583        H592   1.084       .  S
C584        C590   1.398       .  A
C584        C585   1.408       .  A
C585        C587   1.410       .  A
C585        C586   1.401       .  A
C586        H593   1.084       .  S
C587        C588   1.406       .  A
C587        H594   1.084       .  S
C588        C589   1.400       .  A
C588        H595   1.083       .  S
C589        C590   1.416       .  A
C590        H596   1.085       .  S
C597        C598   1.398       .  A
C597        C602   1.409       .  A
C598        C599   1.398       .  A
C598        H607   1.083       .  S
C599        C600   1.405       .  A
C599        H608   1.084       .  S
C600        C606   1.396       .  A
C600        C601   1.410       .  A
C601        C603   1.409       .  A
C601        C602   1.402       .  A
C602        H609   1.085       .  S
C603        C604   1.403       .  A
C603        H610   1.083       .  S
C604        C605   1.400       .  A
C604        H611   1.083       .  S
C605        C606   1.408       .  A
C606        H612   1.085       .  S
C613        C614   1.398       .  A
C613        C618   1.410       .  A
C614        C615   1.392       .  A
C614        H623   1.083       .  S
C615        C616   1.402       .  A
C615        H624   1.084       .  S
C616        C622   1.391       .  A
C616        C617   1.410       .  A
C617        C619   1.410       .  A
C617        C618   1.404       .  A
C618        H625   1.085       .  S
C619        C620   1.407       .  A
C619        H626   1.084       .  S
C620        C621   1.404       .  A
C620        H627   1.083       .  S
C621        C622   1.406       .  A
C622        H628   1.083       .  S
C629        C630   1.402       .  A
C629        C634   1.411       .  A
C630        C631   1.404       .  A
C630        H639   1.083       .  S
C631        C632   1.409       .  A
C631        H640   1.083       .  S
C632        C638   1.402       .  A
C632        C633   1.408       .  A
C633        C635   1.405       .  A
C633        C634   1.395       .  A
C634        H641   1.084       .  S
C635        C636   1.397       .  A
C635        H642   1.084       .  S
C636        C637   1.400       .  A
C636        H643   1.083       .  S
C637        C638   1.416       .  A
C638        H644   1.085       .  S
C645        C646   1.401       .  A
C645        C650   1.409       .  A
C646        C647   1.403       .  A
C646        H655   1.083       .  S
C647        C648   1.409       .  A
C647        H656   1.084       .  S
C648        C654   1.399       .  A
C648        C649   1.408       .  A
C649        C651   1.404       .  A
C649        C650   1.393       .  A
C650        H657   1.085       .  S
C651        C652   1.396       .  A
C651        H658   1.084       .  S
C652        C653   1.403       .  A
C652        H659   1.083       .  S
C653        C654   1.414       .  A
C654        H660   1.084       .  S
C661        C662   1.403       .  A
C661        C666   1.416       .  A
C662        C663   1.399       .  A
C662        H671   1.083       .  S
C663        C664   1.405       .  A
C663        H672   1.084       .  S
C664        C670   1.397       .  A
C664        C665   1.408       .  A
C665        C667   1.408       .  A
C665        C666   1.400       .  A
C666        H673   1.084       .  S
C667        C668   1.401       .  A
C667        H674   1.084       .  S
C668        C669   1.401       .  A
C668        H675   1.083       .  S
C669        C670   1.410       .  A
C670        H676   1.085       .  S
C677        C678   1.401       .  A
C677        C682   1.417       .  A
C678        C679   1.398       .  A
C678        H687   1.083       .  S
C679        C680   1.405       .  A
C679        H688   1.084       .  S
C680        C686   1.396       .  A
C680        C681   1.408       .  A
C681        C683   1.410       .  A
C681        C682   1.403       .  A
C682        H689   1.084       .  S
C683        C684   1.405       .  A
C683        H690   1.084       .  S
C684        C685   1.403       .  A
C684        H691   1.083       .  S
C685        C686   1.411       .  A
C686        H692   1.085       .  S
C693        C694   1.400       .  A
C693        C698   1.404       .  A
C694        C695   1.403       .  A
C694        H703   1.083       .  S
C695        C696   1.409       .  A
C695        H704   1.084       .  S
C696        C702   1.401       .  A
C696        C697   1.411       .  A
C697        C699   1.405       .  A
C697        C698   1.394       .  A
C698        H705   1.085       .  S
C699        C700   1.396       .  A
C699        H706   1.084       .  S
C700        C701   1.397       .  A
C700        H707   1.083       .  S
C701        C702   1.408       .  A
C702        H708   1.085       .  S
C709        C710   1.399       .  A
C709        C714   1.406       .  A
C710        C711   1.399       .  A
C710        H719   1.083       .  S
C711        C712   1.406       .  A
C711        H720   1.083       .  S
C712        C718   1.398       .  A
C712        C713   1.411       .  A
C713        C715   1.405       .  A
C713        C714   1.397       .  A
C714        H721   1.085       .  S
C715        C716   1.398       .  A
C715        H722   1.084       .  S
C716        C717   1.401       .  A
C716        H723   1.083       .  S
C717        C718   1.409       .  A
C718        H724   1.085       .  S
C725        C726   1.401       .  A
C725        C730   1.408       .  A
C726        C727   1.400       .  A
C726        H735   1.083       .  S
C727        C728   1.406       .  A
C727        H736   1.084       .  S
C728        C734   1.400       .  A
C728        C729   1.411       .  A
C729        C731   1.406       .  A
C729        C730   1.401       .  A
C730        H737   1.085       .  S
C731        C732   1.401       .  A
C731        H738   1.084       .  S
C732        C733   1.401       .  A
C732        H739   1.083       .  S
C733        C734   1.410       .  A
C734        H740   1.085       .  S
C741        C742   1.399       .  A
C741        C746   1.405       .  A
C742        C743   1.398       .  A
C742        H751   1.083       .  S
C743        C744   1.405       .  A
C743        H752   1.084       .  S
C744        C750   1.395       .  A
C744        C745   1.412       .  A
C745        C747   1.406       .  A
C745        C746   1.397       .  A
C746        H753   1.085       .  S
C747        C748   1.398       .  A
C747        H754   1.084       .  S
C748        C749   1.399       .  A
C748        H755   1.083       .  S
C749        C750   1.406       .  A
C750        H756   1.085       .  S
O757       Zr769   2.482       .  S
O757        C759   1.295       .  A
O758        C759   1.278       .  A
C759       C1433   1.482       .  S
O760       Zr772   2.445       .  S
O760        C762   1.289       .  A
O761       Zr796   2.430       .  S
O761        C762   1.285       .  A
C762       C1465   1.472       .  S
O763       Zr772   2.426       .  S
O763        C765   1.285       .  A
O764        C765   1.286       .  A
C765       C1505   1.471       .  S
O766       Zr769   2.482       .  S
O766        C768   1.296       .  A
O767       Zr796   2.386       .  S
O767        C768   1.280       .  A
C768       C1417   1.483       .  S
Zr769       O770   2.435       .  S
Zr769       O771   2.436       .  S
Zr769       O776   2.356       .  S
Zr769       O775   2.281       .  S
O770        H813   0.990       .  S
O771        H812   0.990       .  S
O771        H816   0.990       .  S
Zr772       O773   2.441       .  S
Zr772       O774   2.435       .  S
Zr772       O776   2.384       .  S
Zr772       O800   2.383       .  S
Zr772       O802   2.374       .  S
Zr772       O775   2.276       .  S
O773        H814   0.990       .  S
O773        H817   0.991       .  S
O774        H807   0.990   1_455  S
O776       Zr796   2.379       .  S
O776        H803   0.963       .  S
O777       Zr789   2.475       .  S
O777        C779   1.293       .  A
O778        C779   1.277       .  A
C779       C1393   1.473       .  S
O780       Zr792   2.439       .  S
O780        C782   1.287       .  A
O781       Zr795   2.413       .  S
O781        C782   1.282       .  A
C782       C1481   1.470       .  S
O783       Zr792   2.448       .  S
O783        C785   1.288       .  A
O784        C785   1.282       .  A
C785       C1457   1.459       .  S
O786       Zr789   2.455       .  S
O786        C788   1.290       .  A
O787       Zr795   2.389       .  S
O787        C788   1.280       .  A
C788       C1409   1.474       .  S
Zr789       O790   2.438       .  S
Zr789       O791   2.434       .  S
Zr789       O797   2.356       .  S
Zr789       O801   2.376       .  S
Zr789       O799   2.375       .  S
Zr789       O798   2.277       .  S
O790        H810   0.990       .  S
O790        H815   0.990       .  S
O791        H811   0.990       .  S
Zr792       O793   2.437       .  S
Zr792       O794   2.436       .  S
Zr792       O797   2.377       .  S
Zr792       O798   2.271       .  S
O793        H809   0.990       .  S
O794        H808   0.990   1_455  S
O794        H818   0.990       .  S
Zr795       O801   2.392       .  S
Zr795       O798   2.249       .  S
Zr796       O802   2.381       .  S
O797        H805   0.964       .  S
O800        H804   0.966       .  S
O801        H806   0.966       .  S
O819       Zr831   2.415       .  S
O819        C821   1.283       .  A
O820       Zr857   2.440   1_554  S
C821       C1377   1.483       .  S
O822       Zr834   2.482       .  S
O822        C824   1.297       .  A
O823        C824   1.283       .  A
C824       C1257   1.487       .  S
O825       Zr834   2.510       .  S
O825        C827   1.300       .  A
O826       Zr857   2.362   1_554  S
C827       C1281   1.479       .  S
O828       Zr831   2.437       .  S
O828        C830   1.286       .  A
O829        C830   1.287       .  A
C830       C1337   1.472       .  S
Zr831       O832   2.438       .  S
Zr831       O833   2.433       .  S
Zr831       O838   2.368       .  S
Zr831       O837   2.275       .  S
O832        H875   0.991       .  S
O833        H874   0.990       .  S
O833        H878   0.990       .  S
Zr834       O835   2.435       .  S
Zr834       O836   2.436       .  S
Zr834       O838   2.371       .  S
Zr834       O837   2.274       .  S
O835        H876   0.990       .  S
O835        H879   0.991       .  S
O836        H869   0.990       .  S
O838        H865   0.963       .  S
O839       Zr851   2.429       .  S
O839        C841   1.286       .  A
O840       Zr858   2.444       .  S
O840        C841   1.288       .  A
C841       C1321   1.474       .  S
O842       Zr854   2.487       .  S
O842        C844   1.298       .  A
O843       Zr857   2.382       .  S
O843        C844   1.279       .  A
C844       C1305   1.486       .  S
O845       Zr854   2.506       .  S
O845        C847   1.300       .  A
O846       Zr858   2.369       .  S
O846        C847   1.276       .  A
C847       C1297   1.486       .  S
O848       Zr851   2.441       .  S
O848        C850   1.287       .  A
O849       Zr857   2.423       .  S
O849        C850   1.284       .  A
C850       C1361   1.472       .  S
Zr851       O852   2.440       .  S
Zr851       O853   2.436       .  S
Zr851       O859   2.390       .  S
Zr851       O860   2.367       .  S
Zr851       O863   2.381       .  S
Zr851       O861   2.386       .  S
O852        H872   0.990       .  S
O852        H877   0.990       .  S
O853        H873   0.990       .  S
Zr854       O855   2.436       .  S
Zr854       O856   2.435       .  S
Zr854       O860   2.373       .  S
Zr854       O859   2.356       .  S
Zr854       O864   2.377       .  S
Zr854       O862   2.380       .  S
O855        H871   0.990       .  S
O856        H870   0.991       .  S
O856        H880   0.990       .  S
Zr857       O860   2.365       .  S
Zr857       O862   2.403       .  S
Zr857       O863   2.381       .  S
Zr858       O859   2.378       .  S
Zr858       O861   2.385       .  S
Zr858       O864   2.405       .  S
O859        H867   0.963       .  S
O862        H866   0.966       .  S
O863        H868   0.966       .  S
O881       Zr893   2.528       .  S
O881        C883   1.305       .  A
O882       Zr919   2.360   1_545  S
O882        C883   1.276       .  A
C883       C1241   1.499       .  S
O884       Zr896   2.427       .  S
O884        C886   1.284       .  A
O885       Zr920   2.463   1_545  S
O885        C886   1.293       .  A
C886       C1273   1.493       .  S
O887       Zr896   2.442       .  S
O887        C889   1.286       .  A
O888       Zr919   2.440   1_545  S
O888        C889   1.287       .  A
C889       C1441   1.474       .  S
O890       Zr893   2.512       .  S
O890        C892   1.303       .  A
O891       Zr920   2.366   1_545  S
O891        C892   1.277       .  A
C892       C1225   1.492       .  S
Zr893       O894   2.435       .  S
Zr893       O895   2.434       .  S
Zr893       O899   2.364       .  S
Zr893       O900   2.372       .  S
Zr893       O923   2.374   1_545  S
Zr893       O925   2.364   1_545  S
O894        H937   0.990       .  S
O895        H936   0.990       .  S
O895        H940   0.990       .  S
Zr896       O897   2.439       .  S
Zr896       O898   2.429       .  S
Zr896       O900   2.383       .  S
Zr896       O899   2.357       .  S
Zr896       O924   2.383   1_545  S
Zr896       O926   2.384   1_545  S
O897        H938   0.990       .  S
O897        H941   0.991       .  S
O898        H931   0.990       .  S
O899       Zr919   2.365   1_545  S
O900       Zr920   2.387   1_545  S
O900        H927   0.962       .  S
O901       Zr913   2.498       .  S
O901        C903   1.300       .  A
O902       Zr920   2.399       .  S
O902        C903   1.282       .  A
C903       C1193   1.497       .  S
O904       Zr916   2.417       .  S
O904        C906   1.281       .  A
O905       Zr919   2.457       .  S
O905        C906   1.290       .  A
C906       C1425   1.484       .  S
O907       Zr916   2.402       .  S
O907        C909   1.280       .  A
O908       Zr920   2.473       .  S
O908        C909   1.294       .  A
C909       C1265   1.482       .  S
O910       Zr913   2.503       .  S
O910        C912   1.300       .  A
O911       Zr919   2.356       .  S
O911        C912   1.275       .  A
C912       C1217   1.483       .  S
Zr913       O914   2.438       .  S
Zr913       O915   2.434       .  S
Zr913       O921   2.379       .  S
Zr913       O922   2.375       .  S
Zr913       O925   2.374       .  S
Zr913       O923   2.368       .  S
O914        H934   0.990       .  S
O914        H939   0.990       .  S
O915        H935   0.990       .  S
Zr916       O917   2.437       .  S
Zr916       O918   2.428       .  S
Zr916       O922   2.360       .  S
Zr916       O921   2.381       .  S
Zr916       O926   2.389       .  S
Zr916       O924   2.375       .  S
O917        H933   0.991       .  S
O918        H932   0.990       .  S
O918        H942   0.990       .  S
Zr919       O922   2.366       .  S
Zr919       O924   2.367       .  S
Zr919       O925   2.401       .  S
Zr920       O921   2.382       .  S
Zr920       O923   2.402       .  S
Zr920       O926   2.376       .  S
O921        H929   0.964       .  S
O924        H928   0.966       .  S
O925        H930   0.966   1_565  S
O943       Zr955   2.409       .  S
O943        C945   1.280       .  A
O944       Zr981   2.451   1_545  S
O944        C945   1.289       .  A
C945       C1401   1.477       .  S
O946       Zr958   2.513       .  S
O946        C948   1.303       .  A
O947       Zr982   2.373   1_545  S
O947        C948   1.278       .  A
C948       C1169   1.495       .  S
O949       Zr958   2.519       .  S
O949        C951   1.302       .  A
O950       Zr981   2.345   1_545  S
O950        C951   1.273       .  A
C951       C1177   1.483       .  S
O952       Zr955   2.396       .  S
O952        C954   1.279       .  A
O953       Zr982   2.475   1_545  S
O953        C954   1.294       .  A
C954       C1313   1.481       .  S
Zr955       O956   2.438       .  S
Zr955       O957   2.433       .  S
Zr955       O961   2.369       .  S
Zr955       O962   2.385       .  S
Zr955       O985   2.384   1_545  S
Zr955       O987   2.375   1_545  S
O956        H999   0.991       .  S
O957        H998   0.990       .  S
O957       H1002   0.990       .  S
Zr958       O959   2.435       .  S
Zr958       O960   2.435       .  S
Zr958       O962   2.380       .  S
Zr958       O961   2.383       .  S
Zr958       O986   2.373   1_545  S
Zr958       O988   2.369   1_545  S
O959       H1000   0.990       .  S
O959       H1003   0.990       .  S
O960        H993   0.990       .  S
O961       Zr981   2.372   1_545  S
O962       Zr982   2.388   1_545  S
O962        H989   0.965       .  S
O963       Zr975   2.425       .  S
O963        C965   1.284       .  A
O964       Zr982   2.455       .  S
O964        C965   1.292       .  A
C965       C1289   1.488       .  S
O966       Zr978   2.505       .  S
O966        C968   1.300       .  A
O967       Zr981   2.374       .  S
O967        C968   1.278       .  A
C968       C1145   1.486       .  S
O969       Zr978   2.511       .  S
O969        C971   1.303       .  A
O970       Zr982   2.385       .  S
O970        C971   1.280       .  A
C971       C1129   1.498       .  S
O972       Zr975   2.420       .  S
O972        C974   1.282       .  A
O973       Zr981   2.436       .  S
O973        C974   1.285       .  A
C974       C1385   1.471       .  S
Zr975       O976   2.440       .  S
Zr975       O977   2.434       .  S
Zr975       O983   2.382       .  S
Zr975       O984   2.363       .  S
Zr975       O987   2.379       .  S
Zr975       O985   2.379       .  S
O976        H996   0.990       .  S
O976       H1001   0.991       .  S
O977        H997   0.990       .  S
Zr978       O979   2.434       .  S
Zr978       O980   2.437       .  S
Zr978       O984   2.369       .  S
Zr978       O983   2.366       .  S
Zr978       O988   2.369       .  S
Zr978       O986   2.367       .  S
O979        H995   0.990       .  S
O980        H994   0.990       .  S
O980       H1004   0.990       .  S
Zr981       O984   2.365       .  S
Zr981       O986   2.406       .  S
Zr981       O987   2.371       .  S
Zr982       O983   2.381       .  S
Zr982       O985   2.374       .  S
Zr982       O988   2.407       .  S
O983        H991   0.963       .  S
O986        H990   0.966       .  S
O987        H992   0.966   1_565  S
O1005     Zr1017   2.497   1_455  S
O1005      C1007   1.299       .  A
O1006     Zr1043   2.401       .  S
O1006      C1007   1.283       .  A
C1007      C1249   1.497       .  S
O1008     Zr1020   2.432       .  S
O1008      C1010   1.283       .  A
O1009     Zr1044   2.435       .  S
O1009      C1010   1.286       .  A
C1010      C1369   1.464       .  S
O1011     Zr1020   2.421   1_455  S
O1011      C1013   1.283       .  A
O1012     Zr1043   2.419       .  S
O1012      C1013   1.282       .  A
C1013      C1497   1.459       .  S
O1014     Zr1017   2.499       .  S
O1014      C1016   1.298       .  A
O1015     Zr1044   2.355       .  S
O1015      C1016   1.274       .  A
C1016      C1233   1.484       .  S
Zr1017     O1018   2.434       .  S
Zr1017     O1019   2.436       .  S
Zr1017     O1024   2.371       .  S
Zr1017     O1047   2.379       .  S
Zr1017     O1049   2.375       .  S
Zr1017     O1023   2.276       .  S
O1018      H1061   0.990       .  S
O1019      H1060   0.990       .  S
O1019      H1064   0.989       .  S
Zr1020     O1021   2.441       .  S
Zr1020     O1022   2.436       .  S
Zr1020     O1024   2.372       .  S
Zr1020     O1048   2.371       .  S
Zr1020     O1050   2.374       .  S
Zr1020     O1023   2.271       .  S
O1021      H1062   0.990       .  S
O1021      H1065   0.991       .  S
O1022      H1055   0.990       .  S
O1023     Zr1043   2.253   1_655  S
O1024     Zr1044   2.388       .  S
O1024      H1051   0.963       .  S
O1025     Zr1037   2.506       .  S
O1025      C1027   1.300       .  A
O1026     Zr1044   2.374       .  S
O1026      C1027   1.278       .  A
C1027      C1161   1.490       .  S
O1028     Zr1040   2.415   1_455  S
O1028      C1030   1.281       .  A
O1029     Zr1043   2.438       .  S
O1029      C1030   1.286       .  A
C1030      C1489   1.469       .  S
O1031     Zr1040   2.423       .  S
O1031      C1033   1.283       .  A
O1032     Zr1044   2.443       .  S
O1032      C1033   1.287       .  A
C1033      C1353   1.469       .  S
O1034     Zr1037   2.489   1_455  S
O1034      C1036   1.297       .  A
O1035     Zr1043   2.366       .  S
O1035      C1036   1.276       .  A
C1036      C1185   1.487       .  S
Zr1037     O1038   2.435       .  S
Zr1037     O1039   2.431       .  S
Zr1037     O1045   2.377       .  S
Zr1037     O1046   2.382       .  S
Zr1037     O1049   2.382       .  S
Zr1037     O1047   2.378       .  S
O1038      H1058   0.990       .  S
O1038      H1063   0.990       .  S
O1039      H1059   0.990       .  S
Zr1040     O1041   2.438       .  S
Zr1040     O1042   2.437       .  S
Zr1040     O1046   2.372       .  S
Zr1040     O1045   2.375       .  S
Zr1040     O1050   2.379       .  S
Zr1040     O1048   2.381       .  S
O1041      H1057   0.990       .  S
O1042      H1056   0.990       .  S
O1042      H1066   0.991       .  S
Zr1043     O1046   2.374   1_455  S
Zr1043     O1048   2.380   1_455  S
Zr1043     O1049   2.394   1_455  S
Zr1044     O1045   2.377       .  S
Zr1044     O1047   2.396       .  S
Zr1044     O1050   2.377       .  S
O1045      H1053   0.965       .  S
O1048      H1052   0.966   1_655  S
O1049      H1054   0.966   1_655  S
O1067     Zr1079   2.417   1_455  S
O1067      C1069   1.277       .  A
O1068     Zr1105   2.451       .  S
O1068      C1069   1.286       .  A
C1069      C1473   1.473       .  S
O1070     Zr1082   2.535       .  S
O1070      C1072   1.306       .  A
O1071     Zr1106   2.353       .  S
O1071      C1072   1.274       .  A
C1072      C1201   1.498       .  S
O1073     Zr1082   2.507   1_455  S
O1073      C1075   1.301       .  A
O1074     Zr1105   2.362       .  S
O1074      C1075   1.276       .  A
C1075      C1209   1.489       .  S
O1076     Zr1079   2.394       .  S
O1076      C1078   1.279       .  A
O1077     Zr1106   2.468       .  S
O1077      C1078   1.292       .  A
C1078      C1345   1.474       .  S
Zr1079     O1080   2.438       .  S
Zr1079     O1081   2.438       .  S
Zr1079     O1085   2.360   1_655  S
Zr1079     O1086   2.382       .  S
Zr1079     O1109   2.389       .  S
Zr1079     O1111   2.381   1_655  S
O1080      H1123   0.990       .  S
O1081      H1122   0.990       .  S
O1081      H1126   0.990       .  S
Zr1082     O1083   2.438       .  S
Zr1082     O1084   2.431       .  S
Zr1082     O1086   2.372       .  S
Zr1082     O1085   2.380   1_655  S
Zr1082     O1110   2.386   1_655  S
Zr1082     O1112   2.381       .  S
O1083      H1124   0.990       .  S
O1083      H1127   0.990       .  S
O1084      H1117   0.990       .  S
O1085     Zr1105   2.369       .  S
O1086     Zr1106   2.377       .  S
O1086      H1113   0.965       .  S
O1087     Zr1099   2.439       .  S
O1087      C1089   1.285       .  A
O1088     Zr1106   2.410       .  S
O1088      C1089   1.281       .  A
C1089      C1329   1.457       .  S
O1090     Zr1102   2.520   1_455  S
O1090      C1092   1.303       .  A
O1091     Zr1105   2.352       .  S
O1091      C1092   1.274       .  A
C1092      C1153   1.494       .  S
O1093     Zr1102   2.511       .  S
O1093      C1095   1.301       .  A
O1094     Zr1106   2.394       .  S
O1094      C1095   1.281       .  A
C1095      C1137   1.503       .  S
O1096     Zr1099   2.413   1_455  S
O1096      C1098   1.283       .  A
O1097     Zr1105   2.440       .  S
O1097      C1098   1.285       .  A
C1098      C1449   1.473       .  S
Zr1099     O1100   2.444       .  S
Zr1099     O1101   2.438       .  S
Zr1099     O1107   2.376       .  S
Zr1099     O1111   2.377   1_655  S
Zr1099     O1109   2.368       .  S
Zr1099     O1108   2.275       .  S
O1100      H1120   0.991       .  S
O1100      H1125   0.991       .  S
O1101      H1121   0.989       .  S
Zr1102     O1103   2.437       .  S
Zr1102     O1104   2.437       .  S
Zr1102     O1107   2.375       .  S
Zr1102     O1112   2.384       .  S
Zr1102     O1110   2.370   1_655  S
Zr1102     O1108   2.282       .  S
O1103      H1119   0.990       .  S
O1104      H1118   0.990       .  S
O1104      H1128   0.990       .  S
Zr1105     O1110   2.404       .  S
Zr1105     O1111   2.374       .  S
Zr1105     O1108   2.251   1_455  S
Zr1106     O1107   2.388       .  S
Zr1106     O1109   2.378       .  S
Zr1106     O1112   2.403       .  S
O1107      H1115   0.951       .  S
O1110      H1114   0.966       .  S
O1111      H1116   0.966       .  S
C1129      C1130   1.403       .  A
C1129      C1134   1.421       .  A
C1130      C1131   1.403       .  A
C1130      H1139   1.083       .  S
C1131      C1132   1.408       .  A
C1131      H1140   1.083       .  S
C1132      C1138   1.406       .  A
C1132      C1133   1.407       .  A
C1133      C1135   1.410       .  A
C1133      C1134   1.410       .  A
C1134      H1141   1.084       .  S
C1135      C1136   1.408       .  A
C1135      H1142   1.084       .  S
C1136      C1137   1.406       .  A
C1136      H1143   1.083       .  S
C1137      C1138   1.419       .  A
C1138      H1144   1.084       .  S
C1145      C1146   1.402       .  A
C1145      C1150   1.416       .  A
C1146      C1147   1.402       .  A
C1146      H1155   1.083       .  S
C1147      C1148   1.409       .  A
C1147      H1156   1.084       .  S
C1148      C1154   1.400       .  A
C1148      C1149   1.406       .  A
C1149      C1151   1.409       .  A
C1149      C1150   1.403       .  A
C1150      H1157   1.084       .  S
C1151      C1152   1.405       .  A
C1151      H1158   1.083       .  S
C1152      C1153   1.402       .  A
C1152      H1159   1.083       .  S
C1153      C1154   1.420       .  A
C1154      H1160   1.084       .  S
C1161      C1162   1.403       .  A
C1161      C1166   1.416       .  A
C1162      C1163   1.406       .  A
C1162      H1171   1.083       .  S
C1163      C1164   1.410       .  A
C1163      H1172   1.084   1_545  S
C1164      C1170   1.406       .  A
C1164      C1165   1.407       .  A
C1165      C1167   1.407       .  A
C1165      C1166   1.402       .  A
C1166      H1173   1.085       .  S
C1167      C1168   1.402       .  A
C1167      H1174   1.084       .  S
C1168      C1169   1.403       .  A
C1168      H1175   1.083       .  S
C1169      C1170   1.421       .  A
C1170      H1176   1.084       .  S
C1177      C1178   1.399       .  A
C1177      C1182   1.419       .  A
C1178      C1179   1.402       .  A
C1178      H1187   1.083       .  S
C1179      C1180   1.409       .  A
C1179      H1188   1.083       .  S
C1180      C1186   1.397       .  A
C1180      C1181   1.405       .  A
C1181      C1183   1.409       .  A
C1181      C1182   1.398       .  A
C1182      H1189   1.085   1_545  S
C1183      C1184   1.402       .  A
C1183      H1190   1.084   1_545  S
C1184      C1185   1.403       .  A
C1184      H1191   1.083       .  S
C1185      C1186   1.417       .  A
C1186      H1192   1.084       .  S
C1193      C1194   1.405       .  A
C1193      C1198   1.419       .  A
C1194      C1195   1.403       .  A
C1194      H1203   1.083       .  S
C1195      C1196   1.408       .  A
C1195      H1204   1.084       .  S
C1196      C1202   1.405       .  A
C1196      C1197   1.407       .  A
C1197      C1199   1.410       .  A
C1197      C1198   1.409       .  A
C1198      H1205   1.083       .  S
C1199      C1200   1.407       .  A
C1199      H1206   1.082       .  S
C1200      C1201   1.402       .  A
C1200      H1207   1.083       .  S
C1201      C1202   1.421       .  A
C1202      H1208   1.085       .  S
C1209      C1210   1.402       .  A
C1209      C1214   1.420       .  A
C1210      C1211   1.401       .  A
C1210      H1219   1.083       .  S
C1211      C1212   1.408       .  A
C1211      H1220   1.084       .  S
C1212      C1218   1.398       .  A
C1212      C1213   1.406       .  A
C1213      C1215   1.410       .  A
C1213      C1214   1.400       .  A
C1214      H1221   1.084       .  S
C1215      C1216   1.402       .  A
C1215      H1222   1.084       .  S
C1216      C1217   1.401       .  A
C1216      H1223   1.083       .  S
C1217      C1218   1.417       .  A
C1218      H1224   1.085       .  S
C1225      C1226   1.403       .  A
C1225      C1230   1.420       .  A
C1226      C1227   1.401       .  A
C1226      H1235   1.083       .  S
C1227      C1228   1.407       .  A
C1227      H1236   1.084       .  S
C1228      C1234   1.396       .  A
C1228      C1229   1.404       .  A
C1229      C1231   1.410       .  A
C1229      C1230   1.400       .  A
C1230      H1237   1.084       .  S
C1231      C1232   1.404       .  A
C1231      H1238   1.083       .  S
C1232      C1233   1.401       .  A
C1232      H1239   1.083       .  S
C1233      C1234   1.417       .  A
C1234      H1240   1.084       .  S
C1241      C1242   1.403       .  A
C1241      C1246   1.421       .  A
C1242      C1243   1.408       .  A
C1242      H1251   1.083       .  S
C1243      C1244   1.411       .  A
C1243      H1252   1.083       .  S
C1244      C1250   1.410       .  A
C1244      C1245   1.407       .  A
C1245      C1247   1.407       .  A
C1245      C1246   1.403       .  A
C1246      H1253   1.084       .  S
C1247      C1248   1.402       .  A
C1247      H1254   1.084       .  S
C1248      C1249   1.405       .  A
C1248      H1255   1.083       .  S
C1249      C1250   1.418       .  A
C1250      H1256   1.084       .  S
C1257      C1258   1.404       .  A
C1257      C1262   1.417       .  A
C1258      C1259   1.396       .  A
C1258      H1267   1.083       .  S
C1259      C1260   1.403       .  A
C1259      H1268   1.084       .  S
C1260      C1266   1.398       .  A
C1260      C1261   1.409       .  A
C1261      C1263   1.410       .  A
C1261      C1262   1.407       .  A
C1262      H1269   1.084       .  S
C1263      C1264   1.407       .  A
C1263      H1270   1.083       .  S
C1264      C1265   1.402       .  A
C1264      H1271   1.083       .  S
C1265      C1266   1.411       .  A
C1266      H1272   1.085       .  S
C1273      C1274   1.406       .  A
C1273      C1278   1.417       .  A
C1274      C1275   1.404       .  A
C1274      H1283   1.083       .  S
C1275      C1276   1.407       .  A
C1275      H1284   1.084       .  S
C1276      C1282   1.405       .  A
C1276      C1277   1.408       .  A
C1277      C1279   1.408       .  A
C1277      C1278   1.403       .  A
C1278      H1285   1.083       .  S
C1279      C1280   1.402       .  A
C1279      H1286   1.084       .  S
C1280      C1281   1.402       .  A
C1280      H1287   1.083       .  S
C1281      C1282   1.414       .  A
C1282      H1288   1.085       .  S
C1289      C1290   1.404       .  A
C1289      C1294   1.416       .  A
C1290      C1291   1.403       .  A
C1290      H1299   1.083       .  S
C1291      C1292   1.407       .  A
C1291      H1300   1.083       .  S
C1292      C1298   1.404       .  A
C1292      C1293   1.408       .  A
C1293      C1295   1.408       .  A
C1293      C1294   1.403       .  A
C1294      H1301   1.084       .  S
C1295      C1296   1.403       .  A
C1295      H1302   1.084       .  S
C1296      C1297   1.402       .  A
C1296      H1303   1.083       .  S
C1297      C1298   1.416       .  A
C1298      H1304   1.085       .  S
C1305      C1306   1.402       .  A
C1305      C1310   1.418       .  A
C1306      C1307   1.396       .  A
C1306      H1315   1.083       .  S
C1307      C1308   1.404       .  A
C1307      H1316   1.084       .  S
C1308      C1314   1.398       .  A
C1308      C1309   1.409       .  A
C1309      C1311   1.411       .  A
C1309      C1310   1.407       .  A
C1310      H1317   1.084       .  S
C1311      C1312   1.407       .  A
C1311      H1318   1.083       .  S
C1312      C1313   1.402       .  A
C1312      H1319   1.083       .  S
C1313      C1314   1.411       .  A
C1314      H1320   1.085       .  S
C1321      C1322   1.401       .  A
C1321      C1326   1.408       .  A
C1322      C1323   1.405       .  A
C1322      H1331   1.083       .  S
C1323      C1324   1.410       .  A
C1323      H1332   1.084       .  S
C1324      C1330   1.400       .  A
C1324      C1325   1.409       .  A
C1325      C1327   1.405       .  A
C1325      C1326   1.392       .  A
C1326      H1333   1.085       .  S
C1327      C1328   1.395       .  A
C1327      H1334   1.084       .  S
C1328      C1329   1.397       .  A
C1328      H1335   1.083       .  S
C1329      C1330   1.409       .  A
C1330      H1336   1.083       .  S
C1337      C1338   1.399       .  A
C1337      C1342   1.410       .  A
C1338      C1339   1.402       .  A
C1338      H1347   1.083       .  S
C1339      C1340   1.408       .  A
C1339      H1348   1.084       .  S
C1340      C1346   1.400       .  A
C1340      C1341   1.410       .  A
C1341      C1343   1.408       .  A
C1341      C1342   1.401       .  A
C1342      H1349   1.085       .  S
C1343      C1344   1.403       .  A
C1343      H1350   1.084       .  S
C1344      C1345   1.400       .  A
C1344      H1351   1.083       .  S
C1345      C1346   1.412       .  A
C1346      H1352   1.085       .  S
C1353      C1354   1.401       .  A
C1353      C1358   1.408       .  A
C1354      C1355   1.401       .  A
C1354      H1363   1.083       .  S
C1355      C1356   1.406       .  A
C1355      H1364   1.084       .  S
C1356      C1362   1.400       .  A
C1356      C1357   1.411       .  A
C1357      C1359   1.406       .  A
C1357      C1358   1.400       .  A
C1358      H1365   1.085       .  S
C1359      C1360   1.399       .  A
C1359      H1366   1.084       .  S
C1360      C1361   1.401       .  A
C1360      H1367   1.083       .  S
C1361      C1362   1.408       .  A
C1362      H1368   1.085       .  S
C1369      C1370   1.400       .  A
C1369      C1374   1.411       .  A
C1370      C1371   1.396       .  A
C1370      H1379   1.083       .  S
C1371      C1372   1.404       .  A
C1371      H1380   1.084       .  S
C1372      C1378   1.396       .  A
C1372      C1373   1.410       .  A
C1373      C1375   1.410       .  A
C1373      C1374   1.406       .  A
C1374      H1381   1.085       .  S
C1375      C1376   1.407       .  A
C1375      H1382   1.084       .  S
C1376      C1377   1.404       .  A
C1376      H1383   1.083       .  S
C1377      C1378   1.409       .  A
C1378      H1384   1.085       .  S
C1385      C1386   1.400       .  A
C1385      C1390   1.409       .  A
C1386      C1387   1.402       .  A
C1386      H1395   1.083       .  S
C1387      C1388   1.409       .  A
C1387      H1396   1.084       .  S
C1388      C1394   1.397       .  A
C1388      C1389   1.408       .  A
C1389      C1391   1.406       .  A
C1389      C1390   1.393       .  A
C1390      H1397   1.085       .  S
C1391      C1392   1.397       .  A
C1391      H1398   1.084       .  S
C1392      C1393   1.400       .  A
C1392      H1399   1.083       .  S
C1393      C1394   1.413       .  A
C1394      H1400   1.085       .  S
C1401      C1402   1.402       .  A
C1401      C1406   1.409       .  A
C1402      C1403   1.401       .  A
C1402      H1411   1.083       .  S
C1403      C1404   1.406       .  A
C1403      H1412   1.084       .  S
C1404      C1410   1.399       .  A
C1404      C1405   1.410       .  A
C1405      C1407   1.404       .  A
C1405      C1406   1.397       .  A
C1406      H1413   1.085       .  S
C1407      C1408   1.397       .  A
C1407      H1414   1.084       .  S
C1408      C1409   1.402       .  A
C1408      H1415   1.083       .  S
C1409      C1410   1.410       .  A
C1410      H1416   1.084       .  S
C1417      C1418   1.403       .  A
C1417      C1422   1.414       .  A
C1418      C1419   1.400       .  A
C1418      H1427   1.083       .  S
C1419      C1420   1.406       .  A
C1419      H1428   1.084       .  S
C1420      C1426   1.402       .  A
C1420      C1421   1.409       .  A
C1421      C1423   1.407       .  A
C1421      C1422   1.403       .  A
C1422      H1429   1.084       .  S
C1423      C1424   1.403       .  A
C1423      H1430   1.084       .  S
C1424      C1425   1.403       .  A
C1424      H1431   1.083       .  S
C1425      C1426   1.412       .  A
C1426      H1432   1.085       .  S
C1433      C1434   1.403       .  A
C1433      C1438   1.413       .  A
C1434      C1435   1.402       .  A
C1434      H1443   1.083       .  S
C1435      C1436   1.407       .  A
C1435      H1444   1.084       .  S
C1436      C1442   1.401       .  A
C1436      C1437   1.409       .  A
C1437      C1439   1.407       .  A
C1437      C1438   1.399       .  A
C1438      H1445   1.085       .  S
C1439      C1440   1.400       .  A
C1439      H1446   1.084       .  S
C1440      C1441   1.400       .  A
C1440      H1447   1.083       .  S
C1441      C1442   1.410       .  A
C1442      H1448   1.085       .  S
C1449      C1450   1.402       .  A
C1449      C1454   1.406       .  A
C1450      C1451   1.407       .  A
C1450      H1459   1.083       .  S
C1451      C1452   1.411       .  A
C1451      H1460   1.084       .  S
C1452      C1458   1.401       .  A
C1452      C1453   1.409       .  A
C1453      C1455   1.405       .  A
C1453      C1454   1.390       .  A
C1454      H1461   1.085       .  S
C1455      C1456   1.395       .  A
C1455      H1462   1.084       .  S
C1456      C1457   1.397       .  A
C1456      H1463   1.083       .  S
C1457      C1458   1.410       .  A
C1458      H1464   1.084       .  S
C1465      C1466   1.400       .  A
C1465      C1470   1.409       .  A
C1466      C1467   1.402       .  A
C1466      H1475   1.083       .  S
C1467      C1468   1.408       .  A
C1467      H1476   1.083       .  S
C1468      C1474   1.402       .  A
C1468      C1469   1.410       .  A
C1469      C1471   1.405       .  A
C1469      C1470   1.398       .  A
C1470      H1477   1.085       .  S
C1471      C1472   1.399       .  A
C1471      H1478   1.084       .  S
C1472      C1473   1.401       .  A
C1472      H1479   1.083       .  S
C1473      C1474   1.411       .  A
C1474      H1480   1.085       .  S
C1481      C1482   1.402       .  A
C1481      C1486   1.405       .  A
C1482      C1483   1.399       .  A
C1482      H1491   1.083       .  S
C1483      C1484   1.405       .  A
C1483      H1492   1.084       .  S
C1484      C1490   1.399       .  A
C1484      C1485   1.412       .  A
C1485      C1487   1.404       .  A
C1485      C1486   1.397       .  A
C1486      H1493   1.085       .  S
C1487      C1488   1.397       .  A
C1487      H1494   1.084       .  S
C1488      C1489   1.401       .  A
C1488      H1495   1.083       .  S
C1489      C1490   1.407       .  A
C1490      H1496   1.085       .  S
C1497      C1498   1.398       .  A
C1497      C1502   1.405       .  A
C1498      C1499   1.398       .  A
C1498      H1507   1.083       .  S
C1499      C1500   1.406       .  A
C1499      H1508   1.084       .  S
C1500      C1506   1.396       .  A
C1500      C1501   1.411       .  A
C1501      C1503   1.407       .  A
C1501      C1502   1.397       .  A
C1502      H1509   1.085       .  S
C1503      C1504   1.402       .  A
C1503      H1510   1.084       .  S
C1504      C1505   1.401       .  A
C1504      H1511   1.083       .  S
C1505      C1506   1.406       .  A
C1506      H1512   1.085       .  S
