geometry optimzed in LAMMPS
_audit_creation_date              2020-11-30 
_audit_creation_method            'lammps2cif' 
_symmetry_space_group_name_H-M    'P1' 
_symmetry_Int_Tables_number       1 
_symmetry_cell_setting            triclinic 
loop_ 
_symmetry_equiv_pos_as_xyz 
  x,y,z 
_cell_length_a                    53.53694522 
_cell_length_b                    53.382043422353505 
_cell_length_c                    53.390795167307445 
_cell_angle_alpha                 89.75840588974684 
_cell_angle_beta                  90.02869404928563 
_cell_angle_gamma                 89.83774421799629 
loop_ 
_atom_site_label 
_atom_site_type_symbol 
_atom_site_fract_x 
_atom_site_fract_y 
_atom_site_fract_z 
_atom_site_charge 
N1          N  0.53303916  0.09224188  0.49742940    -0.37000
N2          N  0.49374969  0.08984941  0.45989797    -0.57600
N3          N  0.45760901  0.09036672  0.50003432    -0.37000
N4          N  0.49693144  0.09548097  0.53772680    -0.57600
C5          C  0.54636777  0.09584616  0.47624823     0.26600
C6          C  0.54814346  0.09768866  0.51693201     0.26600
C7          C  0.44236193  0.09302055  0.47999874     0.26600
C8          C  0.44409392  0.09595607  0.52059917     0.26600
C9          C  0.51362449  0.08389147  0.44553410     0.35200
C10         C  0.47330441  0.08249981  0.44709393     0.35200
C11         C  0.51772632  0.09027328  0.55119694     0.35200
C12         C  0.47733037  0.08975614  0.55261407     0.35200
C13         C  0.57016355  0.10404732  0.48234030    -0.22300
C14         C  0.57130595  0.10512824  0.50808066    -0.22300
C15         C  0.41890114  0.10070111  0.48788858    -0.22300
C16         C  0.41997147  0.10246162  0.51358979    -0.22300
C17         C  0.50578270  0.07316495  0.42328619    -0.23400
C18         C  0.48019899  0.07223649  0.42429312    -0.23400
C19         C  0.51130520  0.08200123  0.57497004    -0.23400
C20         C  0.48569522  0.08167976  0.57587291    -0.23400
C21         C  0.53872979  0.08853606  0.45203153    -0.18700
C22         C  0.54244616  0.09303029  0.54233507    -0.18700
C23         C  0.45196745  0.09173180  0.54549140    -0.18700
C24         C  0.44846008  0.08600917  0.45526389    -0.18700
H25         H  0.58543536  0.10778840  0.46959621     0.14200
H26         H  0.58757600  0.10996084  0.51907060     0.14200
H27         H  0.40248283  0.10373176  0.47642039     0.14200
H28         H  0.40452784  0.10706953  0.52582857     0.14200
H29         H  0.51728036  0.06652767  0.40800881     0.12500
H30         H  0.46809443  0.06474764  0.40992905     0.12500
H31         H  0.52374689  0.07639982  0.58997558     0.12500
H32         H  0.47453815  0.07577198  0.59171704     0.12500
H33         H  0.51625094  0.08265747  0.49866324     0.25700
H34         H  0.47482113  0.08137696  0.50010483     0.25700
N35         N  0.11391479  0.47724283  0.53731898    -0.37000
N36         N  0.11421167  0.51590956  0.49901500    -0.57600
N37         N  0.10823534  0.47910857  0.46000376    -0.37000
N38         N  0.10699043  0.44025594  0.49826684    -0.57600
C39         C  0.10899546  0.49782809  0.55117360     0.26600
C40         C  0.10646396  0.45720061  0.55092275     0.26600
C41         C  0.10261532  0.50030479  0.44718558     0.26600
C42         C  0.09923158  0.45968356  0.44662483     0.26600
C43         C  0.11955938  0.52995878  0.51922321     0.35200
C44         C  0.11717121  0.53091050  0.47886236     0.35200
C45         C  0.11049425  0.42475110  0.51802325     0.35200
C46         C  0.10727221  0.42569371  0.47764981     0.35200
C47         C  0.09884088  0.49070907  0.57401604    -0.22300
C48         C  0.09746558  0.46504225  0.57394494    -0.22300
C49         C  0.09042228  0.49422082  0.42510739    -0.22300
C50         C  0.08837929  0.46855075  0.42470617    -0.22300
C51         C  0.12657610  0.55385973  0.51188739    -0.23400
C52         C  0.12507992  0.55446262  0.48623565    -0.23400
C53         C  0.11311168  0.40025298  0.50993547    -0.23400
C54         C  0.11111690  0.40085427  0.48431031    -0.23400
C55         C  0.11386309  0.52283734  0.54397305    -0.18700
C56         C  0.10789083  0.43198503  0.54325422    -0.18700
C57         C  0.10129144  0.43412140  0.45328932    -0.18700
C58         C  0.10863524  0.52493304  0.45466853    -0.18700
H59         H  0.09295204  0.50273023  0.58919098     0.14200
H60         H  0.09025598  0.45351865  0.58900270     0.14200
H61         H  0.08364785  0.50693302  0.41077519     0.14200
H62         H  0.07970758  0.45767369  0.41002994     0.14200
H63         H  0.13097037  0.56956310  0.52385500     0.12500
H64         H  0.12806317  0.57074004  0.47446508     0.12500
H65         H  0.11531082  0.38359957  0.52136789     0.12500
H66         H  0.11154502  0.38475394  0.47206087     0.12500
H67         H  0.12358635  0.47670797  0.52043114     0.25700
H68         H  0.11948888  0.47776335  0.47582363     0.25700
N69         N  0.49740209  0.86308874  0.54062759    -0.37000
N70         N  0.46144314  0.86574812  0.49936556    -0.57600
N71         N  0.50152858  0.86481782  0.46335548    -0.37000
N72         N  0.53742008  0.86328227  0.50440986    -0.57600
C73         C  0.47649120  0.87012464  0.55293878     0.26600
C74         C  0.51702796  0.86881494  0.55554079     0.26600
C75         C  0.48229258  0.87170800  0.44834950     0.26600
C76         C  0.52281332  0.87091894  0.45120187     0.26600
C77         C  0.44540816  0.86365240  0.51873827     0.35200
C78         C  0.44754066  0.86431490  0.47829758     0.35200
C79         C  0.55109457  0.85979888  0.52536068     0.35200
C80         C  0.55329967  0.86066256  0.48501261     0.35200
C81         C  0.48285249  0.87966142  0.57622106    -0.22300
C82         C  0.50842703  0.87889300  0.57783216    -0.22300
C83         C  0.49149881  0.88150541  0.42610627    -0.22300
C84         C  0.51703386  0.88117371  0.42797253    -0.22300
C85         C  0.42122694  0.86062721  0.50996025    -0.23400
C86         C  0.42257167  0.86113673  0.48431179    -0.23400
C87         C  0.57571092  0.85452780  0.51926128    -0.23400
C88         C  0.57710519  0.85503480  0.49361778    -0.23400
C89         C  0.45174538  0.86792337  0.54399915    -0.18700
C90         C  0.54251162  0.86514482  0.54967405    -0.18700
C91         C  0.54738251  0.86686161  0.46006365    -0.18700
C92         C  0.45663640  0.86911065  0.45397004    -0.18700
H93         H  0.47038514  0.88679592  0.59047936     0.14200
H94         H  0.51942293  0.88529256  0.59356010     0.14200
H95         H  0.48097792  0.88840471  0.41018964     0.14200
H96         H  0.52986322  0.88781713  0.41377837     0.14200
H97         H  0.40426100  0.85930899  0.52089989     0.12500
H98         H  0.40685818  0.86024673  0.47158947     0.12500
H99         H  0.59122640  0.85173660  0.53198923     0.12500
H100        H  0.59392267  0.85273669  0.48260878     0.12500
H101        H  0.49805145  0.85324783  0.52388265     0.25700
H102        H  0.50029421  0.85462048  0.47992159     0.25700
N103        N  0.88840344  0.47567386  0.46394436    -0.37000
N104        N  0.88945435  0.51359395  0.50285928    -0.57600
N105        N  0.89491339  0.47356188  0.53941897    -0.37000
N106        N  0.89121109  0.43570217  0.50043707    -0.57600
C107        C  0.88227677  0.49643101  0.45075710     0.26600
C108        C  0.88293989  0.45568437  0.44951247     0.26600
C109        C  0.89131068  0.49339557  0.55466355     0.26600
C110        C  0.89216163  0.45262415  0.55345157     0.26600
C111        C  0.89358504  0.52819811  0.48258441     0.35200
C112        C  0.89659561  0.52712527  0.52292296     0.35200
C113        C  0.89596278  0.42250962  0.47941727     0.35200
C114        C  0.89896940  0.42129462  0.51979338     0.35200
C115        C  0.87248783  0.48962712  0.42773555    -0.22300
C116        C  0.87274929  0.46382667  0.42700748    -0.22300
C117        C  0.88609950  0.48496943  0.57870151    -0.22300
C118        C  0.88665505  0.45918989  0.57793730    -0.22300
C119        C  0.90279260  0.55131635  0.48982270    -0.23400
C120        C  0.90468698  0.55063912  0.51543400    -0.23400
C121        C  0.90641767  0.39947416  0.48550841    -0.23400
C122        C  0.90814380  0.39863663  0.51112167    -0.23400
C123        C  0.88864625  0.52107481  0.45766485    -0.18700
C124        C  0.89021963  0.43075966  0.45488502    -0.18700
C125        C  0.89716174  0.42799569  0.54525859    -0.18700
C126        C  0.89527831  0.51872187  0.54797293    -0.18700
H127        H  0.86669968  0.50199626  0.41268751     0.14200
H128        H  0.86725788  0.45239905  0.41125008     0.14200
H129        H  0.88294453  0.49624114  0.59521191     0.14200
H130        H  0.88402193  0.44670913  0.59374111     0.14200
H131        H  0.90779822  0.56697025  0.47791243     0.12500
H132        H  0.91145721  0.56565301  0.52716138     0.12500
H133        H  0.91236267  0.38482538  0.47288173     0.12500
H134        H  0.91557394  0.38322276  0.52208208     0.12500
H135        H  0.89959820  0.47535473  0.47983021     0.25700
H136        H  0.90242529  0.47428273  0.52152311     0.25700
N137        N  0.53529395  0.48150514  0.11961512    -0.37000
N138        N  0.50126434  0.44066872  0.13016254    -0.57600
N139        N  0.44121110  0.47803972  0.13454254    -0.37000
N140        N  0.49695489  0.51943655  0.12806106    -0.57600
C141        C  0.55138089  0.46188390  0.12142765     0.26600
C142        C  0.54910720  0.50274224  0.11994772     0.26600
C143        C  0.45328181  0.45840058  0.14513344     0.26600
C144        C  0.45092659  0.49882170  0.14509486     0.26600
C145        C  0.52026311  0.42744074  0.12031137     0.35200
C146        C  0.48060351  0.42642770  0.12778018     0.35200
C147        C  0.51464950  0.53420469  0.11801006     0.35200
C148        C  0.47534769  0.53248908  0.12680440     0.35200
C149        C  0.57559425  0.47081658  0.12339934    -0.22300
C150        C  0.57417064  0.49656245  0.12236571    -0.22300
C151        C  0.46869052  0.46660744  0.16424463    -0.22300
C152        C  0.46720625  0.49221761  0.16421112    -0.22300
C153        C  0.51179918  0.40427089  0.11223808    -0.23400
C154        C  0.48648771  0.40375653  0.11674503    -0.23400
C155        C  0.50440997  0.55710873  0.11097102    -0.23400
C156        C  0.47930674  0.55588330  0.11629688    -0.23400
C157        C  0.54503264  0.43624624  0.11852702    -0.18700
C158        C  0.53995816  0.52733627  0.11561061    -0.18700
C159        C  0.45199253  0.52189878  0.13254860    -0.18700
C160        C  0.45638704  0.43535536  0.13300534    -0.18700
H161        H  0.59260704  0.45987738  0.12463424     0.14200
H162        H  0.58987862  0.50927819  0.12268328     0.14200
H163        H  0.48178125  0.45544586  0.17503152     0.14200
H164        H  0.47904566  0.50467840  0.17485383     0.14200
H165        H  0.52254982  0.38963644  0.10328137     0.12500
H166        H  0.47381529  0.38876952  0.11191779     0.12500
H167        H  0.51390678  0.57279767  0.10234544     0.12500
H168        H  0.46551655  0.57025754  0.11244259     0.12500
H169        H  0.51641421  0.48044648  0.11510272     0.25700
H170        H  0.43115287  0.47752833  0.11776909     0.25700
N171        N  0.50700185  0.51896890  0.88034130    -0.37000
N172        N  0.54259454  0.47806617  0.87930300    -0.57600
N173        N  0.50284919  0.44138540  0.88086296    -0.37000
N174        N  0.46728310  0.48230711  0.88209827    -0.57600
C175        C  0.52825818  0.53085363  0.88689999     0.26600
C176        C  0.48778144  0.53320360  0.88856478     0.26600
C177        C  0.52267200  0.42716495  0.88772461     0.26600
C178        C  0.48210849  0.42938824  0.88888119     0.26600
C179        C  0.55836652  0.49738628  0.87566813     0.35200
C180        C  0.55613359  0.45702035  0.87594589     0.35200
C181        C  0.45351591  0.50339036  0.87971680     0.35200
C182        C  0.45125725  0.46299209  0.87983632     0.35200
C183        C  0.52246977  0.55321109  0.89876571    -0.22300
C184        C  0.49689008  0.55469412  0.89980346    -0.22300
C185        C  0.51440612  0.40558956  0.89964139    -0.22300
C186        C  0.48877764  0.40697486  0.90033408    -0.22300
C187        C  0.58191948  0.48865377  0.86936186    -0.23400
C188        C  0.58049293  0.46298547  0.86947876    -0.23400
C189        C  0.42870712  0.49747053  0.87536766    -0.23400
C190        C  0.42727863  0.47180923  0.87540049    -0.23400
C191        C  0.55274477  0.52228423  0.88207562    -0.18700
C192        C  0.46223158  0.52743036  0.88594434    -0.18700
C193        C  0.45730770  0.43797464  0.88580189    -0.18700
C194        C  0.54799306  0.43300248  0.88318684    -0.18700
H195        H  0.53532273  0.56694778  0.90614942     0.14200
H196        H  0.48623622  0.56976903  0.90813653     0.14200
H197        H  0.52565768  0.39050561  0.90727315     0.14200
H198        H  0.47648407  0.39316496  0.90859665     0.14200
H199        H  0.59864085  0.49960577  0.86632934     0.12500
H200        H  0.59593411  0.45017656  0.86663614     0.12500
H201        H  0.41309388  0.51030145  0.87372352     0.12500
H202        H  0.41034666  0.46090924  0.87372028     0.12500
H203        H  0.50568363  0.50305568  0.86922952     0.25700
H204        H  0.50333365  0.45736826  0.86965080     0.25700
N205        N  0.99229784  0.59598708  0.03841365    -0.37000
N206        N  0.03319539  0.59059098  0.00346541    -0.57600
N207        N  0.99653607  0.58643623  0.96379835    -0.37000
N208        N  0.95551422  0.59437697  0.99895066    -0.57600
C209        C  0.01193331  0.60065874  0.05346818     0.26600
C210        C  0.97152502  0.60265309  0.05104073     0.26600
C211        C  0.01772671  0.58868027  0.95024441     0.26600
C212        C  0.97715386  0.58985056  0.94795507     0.26600
C213        C  0.04553360  0.58603213  0.02505501     0.35200
C214        C  0.04808038  0.58228166  0.98487562     0.35200
C215        C  0.94047210  0.59081332  0.01894999     0.35200
C216        C  0.94271235  0.58600611  0.97890847     0.35200
C217        C  0.00362840  0.61101356  0.07575716    -0.22300
C218        C  0.97799928  0.61220883  0.07423638    -0.22300
C219        C  0.01174417  0.59368056  0.92543959    -0.22300
C220        C  0.98607021  0.59437944  0.92398637    -0.22300
C221        C  0.06862072  0.57529321  0.02015440    -0.23400
C222        C  0.07030073  0.57305310  0.99460361    -0.23400
C223        C  0.91773782  0.58100301  0.01149774    -0.23400
C224        C  0.91914265  0.57797054  0.98606273    -0.23400
C225        C  0.03646073  0.59221533  0.04903958    -0.18700
C226        C  0.94716645  0.59601247  0.04390760    -0.18700
C227        C  0.95183123  0.58597468  0.95414056    -0.18700
C228        C  0.04203676  0.58351509  0.95920664    -0.18700
H229        H  0.01478619  0.61592493  0.09191151     0.14200
H230        H  0.96547024  0.61814497  0.08898336     0.14200
H231        H  0.02452800  0.59574053  0.90987161     0.14200
H232        H  0.97518997  0.59707224  0.90709107     0.14200
H233        H  0.08275911  0.56967351  0.03355772     0.12500
H234        H  0.08592882  0.56524290  0.98439026     0.12500
H235        H  0.90194931  0.57617417  0.02319755     0.12500
H236        H  0.90463939  0.57027113  0.97427458     0.12500
H237        H  0.99272256  0.58452240  0.02277641     0.25700
H238        H  0.99524549  0.57919732  0.98181387     0.25700
N239        N  0.60877617  0.97715275  0.03763884    -0.37000
N240        N  0.61088936  0.93704948  0.00054359    -0.57600
N241        N  0.61365823  0.97501554  0.96179969    -0.37000
N242        N  0.61513208  0.01502354  0.99883282    -0.57600
C243        C  0.61011099  0.95701616  0.05304194     0.26600
C244        C  0.61097808  0.99784046  0.05201342     0.26600
C245        C  0.61693653  0.95412040  0.94797338     0.26600
C246        C  0.61985731  0.99471601  0.94714836     0.26600
C247        C  0.60456028  0.92344385  0.02093496     0.35200
C248        C  0.60591978  0.92255892  0.98046032     0.35200
C249        C  0.60915335  0.03018560  0.01813349     0.35200
C250        C  0.61241815  0.02895979  0.97782980     0.35200
C251        C  0.61328965  0.96502643  0.07752650    -0.22300
C252        C  0.61365599  0.99078593  0.07689283    -0.22300
C253        C  0.62550528  0.96058558  0.92431699    -0.22300
C254        C  0.62734471  0.98627236  0.92379495    -0.22300
C255        C  0.59631356  0.89991478  0.01378382    -0.23400
C256        C  0.59703866  0.89941420  0.98813241    -0.23400
C257        C  0.60376626  0.05410583  0.00942258    -0.23400
C258        C  0.60566203  0.05328619  0.98388281    -0.23400
C259        C  0.60603860  0.93181889  0.04598431    -0.18700
C260        C  0.60815554  0.02282167  0.04355542    -0.18700
C261        C  0.61571124  0.02007175  0.95318762    -0.18700
C262        C  0.60980639  0.92974297  0.95528639    -0.18700
H263        H  0.61440592  0.95353065  0.09424100     0.14200
H264        H  0.61514375  0.00292175  0.09300696     0.14200
H265        H  0.62928237  0.94813082  0.90881700     0.14200
H266        H  0.63272995  0.99754041  0.90779139     0.14200
H267        H  0.58997498  0.88481452  0.02576329     0.12500
H268        H  0.59152805  0.88382730  0.97649151     0.12500
H269        H  0.59845472  0.07035300  0.02026693     0.12500
H270        H  0.60208093  0.06878042  0.97123674     0.12500
H271        H  0.60327753  0.97692047  0.01926883     0.25700
H272        H  0.60388056  0.97604792  0.97833646     0.25700
N273        N  0.99937412  0.36384537  0.03682213    -0.37000
N274        N  0.96160038  0.35881392  0.99800545    -0.57600
N275        N  0.00181466  0.36033353  0.96159347    -0.37000
N276        N  0.03948385  0.36297911  0.00045422    -0.57600
C277        C  0.97889374  0.35891781  0.05071737     0.26600
C278        C  0.01944125  0.36129221  0.05197590     0.26600
C279        C  0.98219356  0.35507945  0.94667109     0.26600
C280        C  0.02271626  0.35652001  0.94800008     0.26600
C281        C  0.94682591  0.36495311  0.01757464     0.35200
C282        C  0.94819888  0.36371436  0.97707598     0.35200
C283        C  0.05233803  0.37080691  0.02068948     0.35200
C284        C  0.05368159  0.36863767  0.98035183     0.35200
C285        C  0.98602175  0.35275376  0.07495420    -0.22300
C286        C  0.01169166  0.35425381  0.07574806    -0.22300
C287        C  0.99067636  0.34742793  0.92338840    -0.22300
C288        C  0.01634045  0.34826556  0.92425183    -0.22300
C289        C  0.92361415  0.37282865  0.00907781    -0.23400
C290        C  0.92449324  0.37206253  0.98338152    -0.23400
C291        C  0.07510128  0.38083899  0.01349552    -0.23400
C292        C  0.07595322  0.37946415  0.98786558    -0.23400
C293        C  0.95409407  0.36362222  0.04299902    -0.18700
C294        C  0.04400995  0.36839151  0.04561036    -0.18700
C295        C  0.04693364  0.36374805  0.95532894    -0.18700
C296        C  0.95714433  0.36081995  0.95235589    -0.18700
H297        H  0.97390205  0.34870983  0.09067191     0.14200
H298        H  0.02325426  0.35153553  0.09217771     0.14200
H299        H  0.97950099  0.34284411  0.90714919     0.14200
H300        H  0.02884570  0.34442997  0.90880201     0.14200
H301        H  0.90786116  0.37896571  0.02019279     0.12500
H302        H  0.90954267  0.37745290  0.97079625     0.12500
H303        H  0.08948315  0.38855017  0.02542517     0.12500
H304        H  0.09111675  0.38591347  0.97611465     0.12500
H305        H  0.99934090  0.37268406  0.01947469     0.25700
H306        H  0.00084084  0.37018865  0.97826200     0.25700
N307        N  0.38615655  0.01150767  0.99899340    -0.37000
N308        N  0.38780881  0.97535933  0.95882124    -0.57600
N309        N  0.37949718  0.93470906  0.99415186    -0.37000
N310        N  0.37854482  0.97125691  0.03434937    -0.57600
C311        C  0.39636416  0.02540790  0.98043448     0.26600
C312        C  0.39128454  0.02324462  0.02077667     0.26600
C313        C  0.38766787  0.92201452  0.97386079     0.26600
C314        C  0.38351019  0.91975920  0.01429109     0.26600
C315        C  0.38839010  0.99655641  0.94502477     0.35200
C316        C  0.38509031  0.95638393  0.94248505     0.35200
C317        C  0.37547891  0.99074806  0.05007804     0.35200
C318        C  0.37298133  0.95042214  0.04755848     0.35200
C319        C  0.40773238  0.04640655  0.99045280    -0.22300
C320        C  0.40461876  0.04499638  0.01594227    -0.22300
C321        C  0.39598976  0.89842726  0.98105750    -0.22300
C322        C  0.39346086  0.89704060  0.00656477    -0.22300
C323        C  0.38568859  0.99108332  0.91980767    -0.23400
C324        C  0.38366195  0.96552579  0.91819373    -0.23400
C325        C  0.36730070  0.98233279  0.07324537    -0.23400
C326        C  0.36587158  0.95669301  0.07168581    -0.23400
C327        C  0.39475568  0.02019662  0.95461500    -0.18700
C328        C  0.38346687  0.01535533  0.04482807    -0.18700
C329        C  0.37855594  0.92596004  0.03950950    -0.18700
C330        C  0.38769892  0.93097265  0.94894893    -0.18700
H331        H  0.41732179  0.06120314  0.98045376     0.14200
H332        H  0.41138867  0.05851214  0.02937068     0.14200
H333        H  0.40350904  0.88381553  0.96923602     0.14200
H334        H  0.39864246  0.88114042  0.01810975     0.14200
H335        H  0.38627405  0.00402707  0.90415977     0.12500
H336        H  0.38235859  0.95481692  0.90107348     0.12500
H337        H  0.36400687  0.99337862  0.08987925     0.12500
H338        H  0.36129161  0.94400900  0.08686363     0.12500
H339        H  0.37421385  0.99635659  0.99670500     0.25700
H340        H  0.37029389  0.95189529  0.99403652     0.25700
N341        N  0.00474794  0.01557905  0.61280015    -0.37000
N342        N  0.96553220  0.97776011  0.61402950    -0.57600
N343        N  0.00429710  0.93964295  0.61386086    -0.37000
N344        N  0.04347489  0.97743776  0.61572506    -0.57600
C345        C  0.98430566  0.03021827  0.61548893     0.26600
C346        C  0.02497110  0.03003332  0.61718616     0.26600
C347        C  0.98395111  0.92516674  0.61738203     0.26600
C348        C  0.02455776  0.92499931  0.61757685     0.26600
C349        C  0.95160045  0.99799206  0.60781599     0.35200
C350        C  0.95133368  0.95748612  0.60903480     0.35200
C351        C  0.05779132  0.99761612  0.61050889     0.35200
C352        C  0.05741941  0.95709777  0.61006111     0.35200
C353        C  0.99156498  0.05427274  0.62186570    -0.22300
C354        C  0.01725958  0.05413638  0.62302491    -0.22300
C355        C  0.99135689  0.90104047  0.62372474    -0.22300
C356        C  0.01704807  0.90092889  0.62382373    -0.22300
C357        C  0.92814382  0.99056539  0.59975353    -0.23400
C358        C  0.92797334  0.96488863  0.60053933    -0.23400
C359        C  0.08116875  0.99003244  0.60229073    -0.23400
C360        C  0.08093509  0.96435573  0.60201656    -0.23400
C361        C  0.95961781  0.02312589  0.60948946    -0.18700
C362        C  0.05007117  0.02282950  0.61301190    -0.18700
C363        C  0.04936900  0.93200853  0.61223225    -0.18700
C364        C  0.95916023  0.93234172  0.61189339    -0.18700
H365        H  0.97961746  0.07041874  0.62461437     0.14200
H366        H  0.02897796  0.07017539  0.62680150     0.14200
H367        H  0.97948355  0.88497095  0.62696691     0.14200
H368        H  0.02885404  0.88475545  0.62713540     0.14200
H369        H  0.91284813  0.00238259  0.59360114     0.12500
H370        H  0.91254993  0.95303614  0.59507530     0.12500
H371        H  0.09665318  0.00175449  0.59664837     0.12500
H372        H  0.09622196  0.95241936  0.59619033     0.12500
H373        H  0.00497501  0.99806846  0.60451319     0.25700
H374        H  0.00443115  0.95711260  0.60535566     0.25700
N375        N  0.03939744  0.98045235  0.39270346    -0.37000
N376        N  0.00023848  0.01811059  0.38960370    -0.57600
N377        N  0.96487569  0.97779202  0.38472899    -0.37000
N378        N  0.00371876  0.94007513  0.38550735    -0.57600
C379        C  0.05300544  0.00166423  0.39077672     0.26600
C380        C  0.05489697  0.96096252  0.38814066     0.26600
C381        C  0.95024602  0.99769079  0.37929427     0.26600
C382        C  0.95200053  0.95709937  0.37841421     0.26600
C383        C  0.01893548  0.03221741  0.39883921     0.35200
C384        C  0.97886033  0.03069714  0.39431904     0.35200
C385        C  0.02390043  0.92675858  0.39285893     0.35200
C386        C  0.98368074  0.92550076  0.39027736     0.35200
C387        C  0.07746924  0.99561833  0.38467759    -0.22300
C388        C  0.07866831  0.96988326  0.38304757    -0.22300
C389        C  0.92802117  0.98958978  0.36875147    -0.22300
C390        C  0.92909319  0.96383894  0.36830919    -0.22300
C391        C  0.00948081  0.05413991  0.40900172    -0.23400
C392        C  0.98399750  0.05314552  0.40618150    -0.23400
C393        C  0.01672252  0.90333674  0.40155709    -0.23400
C394        C  0.99116086  0.90257491  0.39997732    -0.23400
C395        C  0.04447214  0.02589785  0.39725402    -0.18700
C396        C  0.04873255  0.93543604  0.39158909    -0.18700
C397        C  0.95875366  0.93267456  0.38569529    -0.18700
C398        C  0.95488047  0.02230204  0.38742686    -0.18700
H399        H  0.09301523  0.00836549  0.38252245     0.14200
H400        H  0.09530730  0.95892909  0.37939661     0.14200
H401        H  0.91215423  0.00098672  0.36330338     0.14200
H402        H  0.91424390  0.95144019  0.36247259     0.14200
H403        H  0.01983332  0.06916187  0.41770295     0.12500
H404        H  0.97078901  0.06725015  0.41225458     0.12500
H405        H  0.02859914  0.88851987  0.40873829     0.12500
H406        H  0.97943688  0.88705054  0.40558054     0.12500
H407        H  0.02168559  0.97915222  0.40049041     0.25700
H408        H  0.98038165  0.97801984  0.39641761     0.25700
C409        C  0.64671067  0.88536368  0.65288269     0.79800
N410        N  0.64845466  0.91017181  0.65867342    -0.78500
C411        C  0.63200377  0.92693773  0.64862225     0.82200
N412        N  0.61422210  0.91884485  0.63255062    -0.78400
C413        C  0.61335746  0.89458250  0.62540533     0.82300
N414        N  0.62925989  0.87784447  0.63601283    -0.80200
C415        C  0.64716629  0.07512735  0.64676090     0.79800
N416        N  0.63145723  0.08250269  0.62801243    -0.78500
C417        C  0.61672051  0.06559757  0.61612286     0.82200
N418        N  0.61687824  0.04139736  0.62395817    -0.78400
C419        C  0.63260058  0.03370186  0.64236820     0.82300
N420        N  0.64821388  0.05045805  0.65317620    -0.80200
C421        C  0.90795244  0.62524756  0.65029625     0.79800
N422        N  0.93228768  0.62862089  0.65700022    -0.78500
C423        C  0.95036542  0.61413653  0.64654303     0.82200
N424        N  0.94398071  0.59621590  0.62989721    -0.78400
C425        C  0.91992324  0.59215871  0.62353942     0.82300
N426        N  0.90192022  0.60696829  0.63367693    -0.80200
C427        C  0.09790578  0.62585995  0.64861031     0.79800
N428        N  0.10444529  0.61026219  0.62968168    -0.78500
C429        C  0.08683251  0.59706606  0.61722349     0.82200
N430        N  0.06260979  0.59906806  0.62426979    -0.78400
C431        C  0.05580644  0.61478715  0.64297106     0.82300
N432        N  0.07341778  0.62859801  0.65482261    -0.80200
C433        C  0.64941521  0.63099229  0.90365526     0.79800
N434        N  0.63636582  0.61058572  0.89623770    -0.78500
C435        C  0.62328763  0.59673685  0.91289944     0.82200
N436        N  0.62254574  0.60400452  0.93711120    -0.78400
C437        C  0.63511373  0.62452648  0.94499761     0.82300
N438        N  0.64902177  0.63792931  0.92826863    -0.80200
C439        C  0.64265375  0.63225945  0.09411347     0.79800
N440        N  0.64451205  0.63833452  0.06936376    -0.78500
C441        C  0.62971802  0.62658599  0.05229580     0.82200
N442        N  0.61232161  0.60990072  0.06044563    -0.78400
C443        C  0.61001653  0.60412714  0.08512456     0.82300
N444        N  0.62569442  0.61502701  0.10166173    -0.80200
C445        C  0.90142244  0.62670060  0.35306905     0.79800
N446        N  0.89418017  0.60869274  0.36953616    -0.78500
C447        C  0.91084678  0.59821281  0.38551307     0.82200
N448        N  0.93492016  0.60582092  0.38493503    -0.78400
C449        C  0.94238288  0.62452968  0.36945269     0.82300
N450        N  0.92559725  0.63483725  0.35318838    -0.80200
C451        C  0.09074476  0.63736658  0.35755123     0.79800
N452        N  0.06586842  0.64275309  0.35568532    -0.78500
C453        C  0.04903936  0.62923145  0.36923437     0.82200
N454        N  0.05727278  0.61052737  0.38441655    -0.78400
C455        C  0.08185751  0.60475058  0.38612071     0.82300
N456        N  0.09848528  0.61834508  0.37270637    -0.80200
C457        C  0.64945045  0.88214743  0.35387474     0.79800
N458        N  0.63330190  0.87480746  0.37196194    -0.78500
C459        C  0.61838938  0.89158372  0.38351103     0.82200
N460        N  0.61969821  0.91603015  0.37686677    -0.78400
C461        C  0.63551826  0.92377427  0.35858240     0.82300
N462        N  0.65029884  0.90670979  0.34680550    -0.80200
C463        C  0.64174187  0.07227938  0.34532602     0.79800
N464        N  0.64459052  0.04726862  0.34104805    -0.78500
C465        C  0.63065240  0.03050450  0.35419684     0.82200
N466        N  0.61481535  0.03883321  0.37210754    -0.78400
C467        C  0.61148389  0.06360164  0.37623468     0.82300
N468        N  0.62501120  0.08027574  0.36274927    -0.80200
C469        C  0.91094568  0.31750690  0.64387510     0.79800
N470        N  0.90490719  0.33707650  0.62865264    -0.78500
C471        C  0.92253963  0.34812276  0.61413961     0.82200
N472        N  0.94616875  0.33911003  0.61472427    -0.78400
C473        C  0.95282930  0.32030757  0.63054090     0.82300
N474        N  0.93508414  0.30930065  0.64513786    -0.80200
C475        C  0.09992573  0.32425003  0.64760302     0.79800
N476        N  0.07621177  0.31493799  0.64753552    -0.78500
C477        C  0.05869012  0.32502936  0.63201077     0.82200
N478        N  0.06499805  0.34444714  0.61689289    -0.78400
C479        C  0.08848773  0.35387802  0.61656378     0.82300
N480        N  0.10583965  0.34367828  0.63213234    -0.80200
C481        C  0.34954825  0.88026735  0.65164129     0.79800
N482        N  0.34426400  0.90502927  0.65500621    -0.78500
C483        C  0.35429638  0.92238244  0.63925013     0.82200
N484        N  0.37027446  0.91496342  0.62104608    -0.78400
C485        C  0.37639436  0.89049969  0.61809434     0.82300
N486        N  0.36575210  0.87330099  0.63338159    -0.80200
C487        C  0.35732852  0.07052615  0.65730505     0.79800
N488        N  0.37170031  0.07793954  0.63768140    -0.78500
C489        C  0.38082217  0.06108108  0.62107171     0.82200
N490        N  0.37532659  0.03654839  0.62434055    -0.78400
C491        C  0.36068567  0.02875828  0.64354629     0.82300
N492        N  0.35153298  0.04581365  0.66003574    -0.80200
C493        C  0.65016261  0.32586604  0.90274406     0.79800
N494        N  0.65275266  0.32171923  0.92791010    -0.78500
C495        C  0.63895542  0.33546036  0.94438213     0.82200
N496        N  0.62358429  0.35366755  0.93563636    -0.78400
C497        C  0.62048982  0.35756697  0.91080572     0.82300
N498        N  0.63383743  0.34361190  0.89442154    -0.80200
C499        C  0.64487214  0.32945196  0.09355338     0.79800
N500        N  0.64880648  0.32567445  0.06868286    -0.78500
C501        C  0.63582001  0.33933412  0.05149997     0.82200
N502        N  0.61938562  0.35711174  0.05938332    -0.78400
C503        C  0.61640661  0.36199220  0.08414091     0.82300
N504        N  0.62891011  0.34771151  0.10109891    -0.80200
C505        C  0.35312563  0.62514077  0.91058392     0.79800
N506        N  0.34887106  0.62707414  0.93577578    -0.78500
C507        C  0.36467644  0.61552772  0.95232669     0.82200
N508        N  0.38384221  0.60148777  0.94343438    -0.78400
C509        C  0.38812025  0.59924726  0.91854235     0.82300
N510        N  0.37258982  0.61103842  0.90235028    -0.80200
C511        C  0.33749997  0.61112987  0.10001728     0.79800
N512        N  0.35390121  0.59407612  0.10931794    -0.78500
C513        C  0.37064557  0.58239446  0.09438141     0.82200
N514        N  0.37025849  0.58745010  0.06940348    -0.78400
C515        C  0.35347388  0.60390753  0.05947397     0.82300
N516        N  0.33744519  0.61627906  0.07497151    -0.80200
C517        C  0.35836840  0.88243142  0.34335236     0.79800
N518        N  0.37419806  0.87684718  0.36255585    -0.78500
C519        C  0.38667550  0.89520600  0.37485991     0.82200
N520        N  0.38292902  0.91921156  0.36771006    -0.78400
C521        C  0.36682017  0.92535905  0.34911664     0.82300
N522        N  0.35428643  0.90690695  0.33695532    -0.80200
C523        C  0.34825776  0.07296046  0.34610039     0.79800
N524        N  0.36361726  0.08023144  0.36493849    -0.78500
C525        C  0.37869257  0.06342144  0.37653653     0.82200
N526        N  0.37833640  0.03917361  0.36920397    -0.78400
C527        C  0.36368964  0.03170993  0.34988340     0.82300
N528        N  0.34840248  0.04863482  0.33838688    -0.80200
C529        C  0.90083579  0.32508958  0.34990049     0.79800
N530        N  0.89392918  0.34105172  0.36848245    -0.78500
C531        C  0.91106668  0.35592064  0.37972234     0.82200
N532        N  0.93518944  0.35474540  0.37215474    -0.78400
C533        C  0.94245508  0.33893780  0.35374271     0.82300
N534        N  0.92531664  0.32364611  0.34294533    -0.80200
C535        C  0.09087615  0.33211383  0.34559475     0.79800
N536        N  0.09713479  0.34848883  0.36388726    -0.78500
C537        C  0.07935577  0.36216597  0.37565464     0.82200
N538        N  0.05508725  0.35883892  0.36924442    -0.78400
C539        C  0.04843489  0.34212457  0.35136154     0.82300
N540        N  0.06644624  0.32874806  0.33934101    -0.80200
C541        C  0.35175957  0.33679704  0.90852363     0.79800
N542        N  0.36765540  0.35510470  0.90090076    -0.78500
C543        C  0.38147676  0.36807478  0.91767820     0.82200
N544        N  0.37995288  0.36195736  0.94222240    -0.78400
C545        C  0.36414454  0.34391930  0.95043837     0.82300
N546        N  0.35012122  0.33101603  0.93346753    -0.80200
C547        C  0.34872629  0.34140296  0.09892079     0.79800
N548        N  0.34909814  0.33496349  0.07426165    -0.78500
C549        C  0.36435518  0.34730657  0.05802744     0.82200
N550        N  0.37935193  0.36586430  0.06673907    -0.78400
C551        C  0.37907432  0.37258878  0.09123535     0.82300
N552        N  0.36356721  0.36022735  0.10713331    -0.80200
C553        C  0.14685023  0.38844852  0.15110112     0.79800
N554        N  0.13025297  0.38074820  0.13357832    -0.78500
C555        C  0.11594069  0.39746015  0.12089906     0.82200
N556        N  0.11754669  0.42206970  0.12690732    -0.78400
C557        C  0.13360569  0.43002651  0.14485865     0.82300
N558        N  0.14886288  0.41324667  0.15655966    -0.80200
C559        C  0.13520305  0.57847095  0.15761441     0.79800
N560        N  0.11670015  0.58517936  0.14158902    -0.78500
C561        C  0.10210522  0.56751079  0.13085946     0.82200
N562        N  0.10656774  0.54305645  0.13597453    -0.78400
C563        C  0.12514163  0.53606019  0.15178699     0.82300
N564        N  0.13942516  0.55385626  0.16289083    -0.80200
C565        C  0.39820817  0.12664579  0.14124601     0.79800
N566        N  0.39092543  0.10610243  0.12817135    -0.78500
C567        C  0.40790723  0.09147560  0.11636726     0.82200
N568        N  0.43229264  0.09808662  0.11678023    -0.78400
C569        C  0.43993889  0.11896828  0.12894576     0.82300
N570        N  0.42292063  0.13284203  0.14187093    -0.80200
C571        C  0.58810323  0.13196062  0.14388410     0.79800
N572        N  0.59644732  0.11336518  0.12866147    -0.78500
C573        C  0.58046898  0.10083663  0.11358047     0.82200
N574        N  0.55593308  0.10691581  0.11435325    -0.78400
C575        C  0.54701712  0.12515134  0.12951018     0.82300
N576        N  0.56331871  0.13811807  0.14413580    -0.80200
C577        C  0.41110423  0.12689441  0.85253485     0.79800
N578        N  0.43544935  0.13374984  0.85053975    -0.78500
C579        C  0.45288644  0.12254961  0.86532055     0.82200
N580        N  0.44573728  0.10540184  0.88272522    -0.78400
C581        C  0.42142504  0.09854444  0.88482618     0.82300
N582        N  0.40438095  0.10906331  0.86929684    -0.80200
C583        C  0.60010523  0.12269676  0.84746650     0.79800
N584        N  0.57592066  0.13048601  0.84601632    -0.78500
C585        C  0.55856720  0.11991041  0.86127867     0.82200
N586        N  0.56544030  0.10156764  0.87751761    -0.78400
C587        C  0.58932911  0.09323478  0.87839306     0.82300
N588        N  0.60671653  0.10420394  0.86362806    -0.80200
C589        C  0.40164563  0.81696982  0.13788936     0.79800
N590        N  0.42634710  0.81071677  0.13899464    -0.78500
C591        C  0.44296705  0.82235765  0.12355318     0.82200
N592        N  0.43482764  0.84110047  0.10832674    -0.78400
C593        C  0.41056898  0.84833886  0.10804726     0.82300
N594        N  0.39397707  0.83587290  0.12259319    -0.80200
C595        C  0.59029767  0.82414267  0.14717351     0.79800
N596        N  0.56634502  0.81536556  0.14634066    -0.78500
C597        C  0.54938083  0.82615530  0.13054414     0.82200
N598        N  0.55657776  0.84564778  0.11590893    -0.78400
C599        C  0.57991287  0.85512145  0.11730964     0.82300
N600        N  0.59679492  0.84410120  0.13272120    -0.80200
C601        C  0.84987388  0.38182764  0.14757581     0.79800
N602        N  0.86811906  0.37455787  0.13152608    -0.78500
C603        C  0.87866139  0.39111464  0.11546960     0.82200
N604        N  0.87123609  0.41542288  0.11604504    -0.78400
C605        C  0.85277411  0.42309503  0.13172904     0.82300
N606        N  0.84206480  0.40618936  0.14759509    -0.80200
C607        C  0.84444080  0.57173797  0.14732326     0.79800
N608        N  0.83777333  0.54708065  0.14785528    -0.78500
C609        C  0.85006266  0.53028134  0.13314378     0.82200
N610        N  0.86828496  0.53850470  0.11749307    -0.78400
C611        C  0.87524718  0.56287854  0.11709255     0.82300
N612        N  0.86302101  0.57942584  0.13185517    -0.80200
C613        C  0.84528249  0.12122566  0.40078964     0.79800
N614        N  0.86254299  0.10391221  0.39387157    -0.78500
C615        C  0.87414772  0.08954278  0.41137059     0.82200
N616        N  0.86918366  0.09343582  0.43589801    -0.78400
C617        C  0.85246150  0.11103673  0.44318121     0.82300
N618        N  0.84021297  0.12490690  0.42555248    -0.80200
C619        C  0.85473930  0.12730777  0.59134871     0.79800
N620        N  0.84815053  0.12893827  0.56675474    -0.78500
C621        C  0.85919034  0.11369169  0.54963957     0.82200
N622        N  0.87719713  0.09727387  0.55712147    -0.78400
C623        C  0.88426082  0.09591002  0.58152618     0.82300
N624        N  0.87323991  0.11131004  0.59829931    -0.80200
C625        C  0.15155394  0.83000686  0.40704814     0.79800
N626        N  0.13380632  0.84725740  0.40118645    -0.78500
C627        C  0.12257302  0.86100354  0.41926554     0.82200
N628        N  0.12883082  0.85676808  0.44347331    -0.78400
C629        C  0.14668000  0.83977699  0.44974377     0.82300
N630        N  0.15837455  0.82654359  0.43143267    -0.80200
C631        C  0.15508145  0.82836013  0.59756991     0.79800
N632        N  0.16200145  0.82694204  0.57307899    -0.78500
C633        C  0.15044745  0.84170405  0.55577654     0.82200
N634        N  0.13204697  0.85762148  0.56309027    -0.78400
C635        C  0.12492515  0.85892806  0.58743493     0.82300
N636        N  0.13616557  0.84378565  0.60443970    -0.80200
C637        C  0.85351338  0.38034642  0.84741058     0.79800
N638        N  0.87311804  0.37257734  0.86153981    -0.78500
C639        C  0.88572239  0.38884730  0.87616541     0.82200
N640        N  0.87927030  0.41346693  0.87553989    -0.78400
C641        C  0.86001995  0.42162489  0.86101633     0.82300
N642        N  0.84713162  0.40500799  0.84683898    -0.80200
C643        C  0.84826281  0.56964941  0.84924881     0.79800
N644        N  0.86602558  0.57713570  0.86569457    -0.78500
C645        C  0.87646466  0.56052542  0.88184969     0.82200
N646        N  0.86967549  0.53615700  0.88082204    -0.78400
C647        C  0.85260537  0.52818333  0.86392636     0.82300
N648        N  0.84135643  0.54511291  0.84843607    -0.80200
C649        C  0.85246129  0.82967268  0.40311945     0.79800
N650        N  0.86971523  0.84667230  0.39535694    -0.78500
C651        C  0.88220687  0.86103967  0.41205992     0.82200
N652        N  0.87684942  0.85862077  0.43677471    -0.78400
C653        C  0.86001535  0.84152469  0.44500166     0.82300
N654        N  0.84790736  0.82687732  0.42811133    -0.80200
C655        C  0.85594439  0.82801742  0.59378909     0.79800
N656        N  0.84895148  0.82682489  0.56919763    -0.78500
C657        C  0.85974676  0.84233318  0.55203161     0.82200
N658        N  0.87801603  0.85818829  0.55940225    -0.78400
C659        C  0.88562733  0.85899925  0.58352450     0.82300
N660        N  0.87392116  0.84448826  0.60070674    -0.80200
C661        C  0.40623156  0.82070397  0.85324235     0.79800
N662        N  0.43074883  0.81527614  0.84909668    -0.78500
C663        C  0.44863676  0.82873890  0.86098066     0.82200
N664        N  0.44195471  0.84768896  0.87636879    -0.78400
C665        C  0.41773468  0.85408640  0.87959862     0.82300
N666        N  0.39993525  0.84030866  0.86804810    -0.80200
C667        C  0.59627058  0.82769201  0.84922768     0.79800
N668        N  0.60234172  0.84634304  0.86530327    -0.78500
C669        C  0.58454488  0.85725817  0.87966434     0.82200
N670        N  0.56066737  0.84911533  0.87813992    -0.78400
C671        C  0.55426500  0.83074267  0.86192131     0.82300
N672        N  0.57206248  0.82014575  0.84717580    -0.80200
O673        O  0.29577119  0.72040972  0.76895356    -0.88800
C674        C  0.22939216  0.71473260  0.80609170     0.87300
Mg675      Mg  0.30547517  0.75276699  0.74686089     1.58100
O676        O  0.23448956  0.67852427  0.75141869    -0.88500
O677        O  0.29242480  0.67985647  0.76477459    -0.75800
C678        C  0.20673976  0.77659839  0.67697920     0.92300
O679        O  0.26330507  0.76457229  0.79431741    -0.75600
O680        O  0.22446560  0.78790665  0.68794011    -0.83100
Mg681      Mg  0.28200981  0.72783320  0.80642098     1.58000
C682        C  0.17628281  0.67875117  0.70018906     0.92200
O683        O  0.30061277  0.69378335  0.82528505    -0.81400
H684        H  0.25191840  0.65236388  0.73116606    -0.06800
C685        C  0.19853442  0.74568291  0.74353329     0.87200
O686        O  0.29363535  0.73373738  0.71041576    -0.75900
O687        O  0.24933711  0.70677167  0.79758486    -0.88700
O688        O  0.18052257  0.67365702  0.72318195    -0.81500
C689        C  0.19831029  0.64894997  0.79954076     0.92400
C690        C  0.29568259  0.67099550  0.83039520     0.92200
Mg691      Mg  0.22100164  0.71916110  0.69881248     1.58000
O692        O  0.20150915  0.75376381  0.68162850    -0.81400
O693        O  0.24022814  0.68247489  0.71095847    -0.75700
O694        O  0.22130011  0.65326029  0.80383552    -0.81500
O695        O  0.31641332  0.75008780  0.81555927    -0.83200
O696        O  0.28098152  0.79477324  0.70253211    -0.81500
C697        C  0.24233200  0.67021550  0.73130877     0.86600
O698        O  0.25345176  0.74027141  0.70763604    -0.88700
O699        O  0.20707683  0.72556159  0.73603587    -0.88800
O700        O  0.21059378  0.76597822  0.74118945    -0.75800
Mg701      Mg  0.25576283  0.66917169  0.78428347     1.58000
O702        O  0.18658612  0.65951309  0.78161218    -0.83200
H703        H  0.32224945  0.69978406  0.75246725    -0.06900
O704        O  0.26856113  0.76750871  0.75386202    -0.88500
H705        H  0.25217652  0.79460012  0.77372200    -0.06800
H706        H  0.27275653  0.72318007  0.68057990    -0.06900
C707        C  0.26128128  0.77649691  0.77383334     0.86600
C708        C  0.30439783  0.70014563  0.76191863     0.87200
C709        C  0.27315402  0.73236180  0.69858657     0.87300
H710        H  0.18069476  0.74588392  0.75301131    -0.06900
O711        O  0.20903661  0.71267364  0.79408225    -0.75900
Mg712      Mg  0.24708774  0.77743335  0.72180147     1.58000
H713        H  0.22940806  0.72438228  0.82385332    -0.06900
C714        C  0.32782601  0.76699088  0.80327526     0.92200
O715        O  0.31595547  0.78694834  0.72366326    -0.83200
C716        C  0.30398373  0.79891597  0.70684106     0.92300
O717        O  0.27856222  0.65907047  0.81900484    -0.83100
Mg718      Mg  0.19732941  0.69316008  0.75771052     1.58200
O719        O  0.32277525  0.77190573  0.78052612    -0.81500
O720        O  0.18726087  0.69656322  0.68892548    -0.83200
O721        O  0.76766190  0.72631381  0.70284311    -0.88800
C722        C  0.80550057  0.71802892  0.76896065     0.87300
Mg723      Mg  0.74638172  0.75941613  0.69357793     1.58100
O724        O  0.75007275  0.68294711  0.76412174    -0.88500
O725        O  0.76309729  0.68572368  0.70602330    -0.75800
C726        C  0.67682585  0.78112983  0.79380058     0.92300
O727        O  0.79432294  0.76871881  0.73595717    -0.75600
O728        O  0.68805522  0.79282519  0.77636775    -0.83100
Mg729      Mg  0.80527034  0.73220569  0.71616325     1.58000
C730        C  0.70002474  0.68324231  0.82370749     0.92200
O731        O  0.82182561  0.69781174  0.69579268    -0.81400
H732        H  0.72945603  0.65749120  0.74624768    -0.06800
C733        C  0.74359428  0.74972352  0.80110910     0.87200
O734        O  0.70977375  0.74082876  0.70561966    -0.75900
O735        O  0.79655412  0.71067674  0.74899302    -0.88700
O736        O  0.72292625  0.67830146  0.81949877    -0.81500
C737        C  0.79632493  0.65042727  0.79943752     0.92400
C738        C  0.82772554  0.67549980  0.70207971     0.92200
Mg739      Mg  0.69842730  0.72395111  0.77834443     1.58000
O740        O  0.68149103  0.75811325  0.79839502    -0.81400
O741        O  0.70983902  0.68764786  0.75840439    -0.75700
O742        O  0.80205682  0.65560334  0.77682353    -0.81500
O743        O  0.81480141  0.75530107  0.68204479    -0.83200
O744        O  0.70294366  0.80133391  0.71932442    -0.81500
C745        C  0.72989419  0.67511055  0.75614751     0.86600
O746        O  0.70748640  0.74590473  0.74610608    -0.88700
O747        O  0.73585964  0.72987858  0.79224572    -0.88800
O748        O  0.74139559  0.77032372  0.78937174    -0.75800
Mg749      Mg  0.78261962  0.67356404  0.74257925     1.58000
O750        O  0.77928599  0.66226617  0.81102476    -0.83200
H751        H  0.75046516  0.70621789  0.67647873    -0.06900
O752        O  0.75398936  0.77329372  0.73093457    -0.88500
H753        H  0.77488199  0.79896635  0.74817266    -0.06800
H754        H  0.68006481  0.72990140  0.72649868    -0.06900
C755        C  0.77429324  0.78124587  0.73846248     0.86600
C756        C  0.76019295  0.70624182  0.69422854     0.87200
C757        C  0.69816752  0.73882297  0.72621718     0.87300
H758        H  0.75315566  0.74941234  0.81894892    -0.06900
O759        O  0.79372145  0.71579227  0.78945971    -0.75900
Mg760      Mg  0.72198953  0.78285916  0.75307516     1.58000
H761        H  0.82345836  0.72724253  0.76886368    -0.06900
C762        C  0.80311175  0.77265892  0.67058577     0.92200
O763        O  0.72356118  0.79421471  0.68381226    -0.83200
C764        C  0.70695648  0.80591576  0.69624192     0.92300
O765        O  0.81708467  0.66405556  0.72005634    -0.83100
Mg766      Mg  0.75705412  0.69697282  0.80141565     1.58200
O767        O  0.78044463  0.77804872  0.67543868    -0.81500
O768        O  0.68837062  0.70048006  0.81205323    -0.83200
O769        O  0.74969372  0.77230624  0.26689926    -0.88800
C770        C  0.75713687  0.70591663  0.30428298     0.87300
Mg771      Mg  0.71691088  0.78161245  0.24554117     1.58100
O772        O  0.79106614  0.71048527  0.24814742    -0.88500
O773        O  0.78989395  0.76890157  0.26082038    -0.75800
C774        C  0.69275354  0.68318994  0.17489895     0.92300
O775        O  0.70688762  0.73968631  0.29356539    -0.75600
O776        O  0.68178261  0.70078363  0.18651676    -0.83100
Mg777      Mg  0.74365211  0.75879115  0.30463800     1.58000
C778        C  0.78970460  0.64965217  0.19835656     0.92200
O779        O  0.77835903  0.77784530  0.32183503    -0.81400
H780        H  0.81732517  0.72662036  0.22697870    -0.06800
C781        C  0.72429095  0.67385853  0.24258368     0.87200
O782        O  0.73569544  0.76919352  0.20896871    -0.75900
O783        O  0.76467141  0.72597139  0.29547227    -0.88700
O784        O  0.79619497  0.65536173  0.22063025    -0.81500
C785        C  0.82385784  0.67570624  0.29511259     0.92400
C786        C  0.80144189  0.77320049  0.32567983     0.92200
Mg787      Mg  0.75005589  0.69553660  0.19687815     1.58000
O788        O  0.71509154  0.67662703  0.18011210    -0.81400
O789        O  0.78715265  0.71437915  0.20755822    -0.75700
O790        O  0.81839259  0.69835344  0.29996966    -0.81500
O791        O  0.72124365  0.79333990  0.31406244    -0.83200
O792        O  0.67555337  0.75718567  0.20148091    -0.81500
C793        C  0.79941071  0.71734970  0.22768946     0.86600
O794        O  0.72961756  0.72879782  0.20611202    -0.88700
O795        O  0.74429807  0.68211068  0.23457683    -0.88800
O796        O  0.70406283  0.68613317  0.24030010    -0.75800
Mg797      Mg  0.80146837  0.73236513  0.28031457     1.58000
O798        O  0.81266384  0.66359468  0.27793764    -0.83200
H799        H  0.76941138  0.79889441  0.24945339    -0.06900
O800        O  0.70284077  0.74442295  0.25304876    -0.88500
H801        H  0.67671766  0.72776527  0.27397672    -0.06800
H802        H  0.74685943  0.74839414  0.17926388    -0.06900
C803        C  0.69457259  0.73716056  0.27341176     0.86600
C804        C  0.76953878  0.78097325  0.25896051     0.87200
C805        C  0.73750119  0.74865357  0.19720019     0.87300
H806        H  0.72410815  0.65606112  0.25232079    -0.06900
O807        O  0.75912461  0.68546976  0.29234581    -0.75900
Mg808      Mg  0.69262260  0.72294545  0.22082123     1.58000
H809        H  0.74794209  0.70589816  0.32230787    -0.06900
C810        C  0.70377115  0.80450837  0.30227610     0.92200
O811        O  0.68229938  0.79215603  0.22273396    -0.83200
C812        C  0.67083789  0.78016620  0.20570899     0.92300
O813        O  0.81280429  0.75581738  0.31402414    -0.83100
Mg814      Mg  0.77759828  0.67313557  0.25549862     1.58200
O815        O  0.69825532  0.79914412  0.27974723    -0.81500
O816        O  0.77171884  0.66056902  0.18719567    -0.83200
O817        O  0.73776776  0.22304549  0.79387750    -0.88800
C818        C  0.70087546  0.21603878  0.72740589     0.87300
Mg819      Mg  0.75839369  0.25618517  0.80289331     1.58100
O820        O  0.75576528  0.17990725  0.73127362    -0.88500
O821        O  0.74407804  0.18269844  0.78957074    -0.75800
C822        C  0.83027867  0.27616923  0.70344767     0.92300
O823        O  0.71139152  0.26613805  0.76034101    -0.75600
O824        O  0.81925848  0.28834420  0.72067278    -0.83100
Mg825      Mg  0.70047670  0.22929653  0.77980121     1.58000
C826        C  0.80560052  0.18014355  0.67213679     0.92200
O827        O  0.68430120  0.19482129  0.79909628    -0.81400
H828        H  0.77558947  0.15285023  0.74803414    -0.06800
C829        C  0.76310798  0.24690524  0.69516873     0.87200
O830        O  0.79532127  0.23725562  0.79148355    -0.75900
O831        O  0.70989409  0.20813680  0.74721821    -0.88700
O832        O  0.78252359  0.17575092  0.67605442    -0.81500
C833        C  0.70762948  0.15037269  0.69590376     0.92400
C834        C  0.67997117  0.17183598  0.79484047     0.92200
Mg835      Mg  0.80744425  0.21962876  0.71839972     1.58000
O836        O  0.82482570  0.25341808  0.69906682    -0.81400
O837        O  0.79596078  0.18304240  0.73745119    -0.75700
O838        O  0.70418872  0.15389470  0.71926137    -0.81500
O839        O  0.68990399  0.25188386  0.81404657    -0.83200
O840        O  0.80362092  0.29561726  0.77781916    -0.81500
C841        C  0.77566640  0.17096967  0.73891077     0.86600
O842        O  0.79802900  0.24126851  0.75082622    -0.88700
O843        O  0.77039414  0.22678072  0.70406256    -0.88800
O844        O  0.76536809  0.26730212  0.70704274    -0.75800
Mg845      Mg  0.72406736  0.17071480  0.75341527     1.58000
O846        O  0.72468278  0.16162739  0.68370185    -0.83200
H847        H  0.75620798  0.20268474  0.81942698    -0.06900
O848        O  0.75174125  0.26972844  0.76524582    -0.88500
H849        H  0.73127468  0.29612953  0.74817386    -0.06800
H850        H  0.82503604  0.22515528  0.77120765    -0.06900
C851        C  0.73160098  0.27824611  0.75774767     0.86600
C852        C  0.74615188  0.20292566  0.80186119     0.87200
C853        C  0.80703205  0.23437820  0.77102060     0.87300
H854        H  0.75382248  0.24701564  0.67718232    -0.06900
O855        O  0.71249980  0.21422468  0.70679941    -0.75900
Mg856      Mg  0.78449914  0.27872342  0.74362634     1.58000
H857        H  0.68301625  0.22553293  0.72778266    -0.06900
C858        C  0.70096293  0.26975025  0.82509738     0.92200
O859        O  0.78038534  0.29102703  0.81216427    -0.83200
C860        C  0.79832827  0.30123436  0.80035065     0.92300
O861        O  0.69086317  0.16019550  0.77719464    -0.83100
Mg862      Mg  0.74860108  0.19487606  0.69425628     1.58200
O863        O  0.72368607  0.27513811  0.82037574    -0.81500
O864        O  0.81740500  0.19680529  0.68425198    -0.83200
C865        C  0.15426875  0.38083666  0.85487781     0.79800
N866        N  0.15924736  0.40571026  0.85186772    -0.78500
C867        C  0.14602468  0.42299938  0.86502246     0.82200
N868        N  0.12761400  0.41545170  0.88063048    -0.78400
C869        C  0.12160526  0.39097975  0.88278532     0.82300
N870        N  0.13534953  0.37370783  0.87032042    -0.80200
C871        C  0.15085122  0.57147281  0.85861622     0.79800
N872        N  0.13291079  0.57813695  0.87533297    -0.78500
C873        C  0.12168969  0.56066184  0.88995707     0.82200
N874        N  0.12826491  0.53626951  0.88740191    -0.78400
C875        C  0.14577137  0.52923793  0.87049292     0.82300
N876        N  0.15669476  0.54681481  0.85569267    -0.80200
O877        O  0.27164275  0.18298919  0.75671195    -0.88800
C878        C  0.30971604  0.24894397  0.76321182     0.87300
Mg879      Mg  0.25065244  0.17291205  0.72401005     1.58100
O880        O  0.25422332  0.24495053  0.79834800    -0.88500
O881        O  0.26691014  0.18675469  0.79718749    -0.75800
C882        C  0.18002548  0.27234658  0.69946652     0.92300
O883        O  0.29821857  0.21511798  0.71317067    -0.75600
O884        O  0.19128754  0.25446157  0.68848983    -0.83100
Mg885      Mg  0.30917928  0.19615402  0.75026814     1.58000
C886        C  0.20458165  0.30398231  0.79770373     0.92200
O887        O  0.32529765  0.17668434  0.78487711    -0.81400
H888        H  0.23332012  0.22765029  0.82411403    -0.06800
C889        C  0.24776839  0.28039722  0.73024222     0.87200
O890        O  0.21390144  0.18560512  0.74214957    -0.75900
O891        O  0.30049228  0.22925980  0.77107007    -0.88700
O892        O  0.22752805  0.29953277  0.80209427    -0.81500
C893        C  0.30094074  0.28063717  0.83041658     0.92400
C894        C  0.33102630  0.18258007  0.80721769     0.92200
Mg895      Mg  0.20247981  0.25903721  0.75691977     1.58000
O896        O  0.18530197  0.27869815  0.72190351    -0.81400
O897        O  0.21393104  0.23961920  0.79366187    -0.75700
O898        O  0.30595604  0.25769175  0.82616528    -0.81500
O899        O  0.31912873  0.16138856  0.72850993    -0.83200
O900        O  0.20605484  0.19681156  0.68179945    -0.81500
C901        C  0.23392734  0.23730391  0.80628404     0.86600
O902        O  0.21131228  0.22599359  0.73595759    -0.88700
O903        O  0.24009705  0.27231052  0.75054403    -0.88800
O904        O  0.24510337  0.26812089  0.71008397    -0.75800
Mg905      Mg  0.28646969  0.22336818  0.80850342     1.58000
O906        O  0.28414104  0.29221397  0.81799217    -0.83200
H907        H  0.25447373  0.15690253  0.77737164    -0.06900
O908        O  0.25793378  0.20978397  0.70875751    -0.88500
H909        H  0.27874570  0.22654924  0.68256109    -0.06800
H910        H  0.18414556  0.20663189  0.75280324    -0.06900
C911        C  0.27819518  0.21723832  0.70057334     0.86600
C912        C  0.26415083  0.17464871  0.77695895     0.87200
C913        C  0.20219765  0.20622999  0.74374482     0.87300
H914        H  0.25754746  0.29808370  0.72972367    -0.06900
O915        O  0.29811366  0.26962422  0.76474279    -0.75900
Mg916      Mg  0.22553219  0.23151289  0.69875054     1.58000
H917        H  0.32772860  0.24840079  0.75408078    -0.06900
C918        C  0.30744225  0.14914747  0.71188465     0.92200
O919        O  0.22856643  0.16242901  0.68943727    -0.83200
C920        C  0.21149490  0.17394413  0.67741779     0.92300
O921        O  0.32053845  0.20057579  0.81868007    -0.83100
Mg922      Mg  0.26152304  0.28189837  0.78339208     1.58200
O923        O  0.28480105  0.15392717  0.70626789    -0.81500
O924        O  0.19270554  0.29319722  0.78014477    -0.83200
O925        O  0.26673029  0.77206305  0.24782142    -0.88800
C926        C  0.29881106  0.70265006  0.24220619     0.87300
Mg927      Mg  0.24620560  0.78351246  0.28050614     1.58100
O928        O  0.24392468  0.71106782  0.20670629    -0.88500
O929        O  0.26115559  0.76789692  0.20746565    -0.75800
C930        C  0.16951481  0.68942530  0.30526342     0.92300
O931        O  0.29074274  0.73836755  0.29182420    -0.75600
O932        O  0.18120737  0.70683038  0.31639399    -0.83100
Mg933      Mg  0.30324413  0.75597196  0.25452253     1.58000
C934        C  0.18914970  0.65604915  0.20858336     0.92200
O935        O  0.32133983  0.77332227  0.21923216    -0.81400
H936        H  0.22475950  0.72963388  0.18035644    -0.06800
C937        C  0.23494246  0.67639000  0.27434840     0.87200
O938        O  0.20880236  0.77391528  0.26195932    -0.75900
O939        O  0.29173872  0.72320304  0.23410716    -0.88700
O940        O  0.21207198  0.65883869  0.20272497    -0.81500
C941        C  0.28770645  0.67114250  0.17542087     0.92400
C942        C  0.32562267  0.76714391  0.19659047     0.92200
Mg943      Mg  0.19162529  0.70188635  0.24778265     1.58000
O944        O  0.17396082  0.68364483  0.28258137    -0.81400
O945        O  0.20418923  0.71990188  0.21076734    -0.75700
O946        O  0.29474649  0.69345904  0.17999628    -0.81500
O947        O  0.31536029  0.79051072  0.27632739    -0.83200
O948        O  0.19971271  0.76256216  0.32130497    -0.81500
C949        C  0.22441037  0.72028818  0.19835606     0.86600
O950        O  0.20326415  0.73386520  0.26827073    -0.88700
O951        O  0.22777880  0.68522522  0.25414881    -0.88800
O952        O  0.23366557  0.68884504  0.29451714    -0.75800
Mg953      Mg  0.27786342  0.72970787  0.19664591     1.58000
O954        O  0.26949872  0.66125166  0.18713359    -0.83200
H955        H  0.25125329  0.79902920  0.22681080    -0.06900
O956        O  0.25074997  0.74606140  0.29535315    -0.88500
H957        H  0.27014984  0.72842604  0.32216748    -0.06800
H958        H  0.17764632  0.75525671  0.25122313    -0.06900
C959        C  0.27041085  0.73750321  0.30402967     0.86600
C960        C  0.25961365  0.78057937  0.22747748     0.87200
C961        C  0.19563413  0.75427179  0.26039278     0.87300
H962        H  0.24317382  0.65787475  0.27472974    -0.06900
O963        O  0.28539561  0.68315845  0.24026768    -0.75900
Mg964      Mg  0.21691607  0.72694296  0.30543888     1.58000
H965        H  0.31658871  0.70135563  0.25174568    -0.06900
C966        C  0.30426265  0.80315708  0.29319398     0.92200
O967        O  0.22452028  0.79548425  0.31508753    -0.83200
C968        C  0.20630326  0.78489242  0.32613259     0.92300
O969        O  0.31329603  0.74992500  0.18580122    -0.83100
Mg970      Mg  0.24790517  0.67367949  0.22146249     1.58200
O971        O  0.28145944  0.79941786  0.29880965    -0.81500
O972        O  0.17895562  0.66867114  0.22587314    -0.83200
O973        O  0.72876694  0.18170770  0.24402509    -0.88800
C974        C  0.69320215  0.24955176  0.23817813     0.87300
Mg975      Mg  0.75076157  0.17131859  0.27614925     1.58100
O976        O  0.74773826  0.24322531  0.20208204    -0.88500
O977        O  0.73304155  0.18557411  0.20348589    -0.75800
C978        C  0.82234231  0.27007454  0.29960289     0.92300
O979        O  0.70455207  0.21467166  0.28826489    -0.75600
O980        O  0.81145262  0.25207439  0.31073056    -0.83100
Mg981      Mg  0.69189439  0.19652903  0.25154866     1.58000
C982        C  0.79872623  0.30277777  0.20167651     0.92200
O983        O  0.67282252  0.17820491  0.21746244    -0.81400
H984        H  0.76763061  0.22623070  0.17536640    -0.06800
C985        C  0.75554931  0.27886806  0.26895026     0.87200
O986        O  0.78706387  0.18337977  0.25655051    -0.75900
O987        O  0.70150210  0.22932974  0.23063040    -0.88700
O988        O  0.77643257  0.29690693  0.19591444    -0.81500
C989        C  0.70107443  0.27964160  0.17105686     0.92400
C990        C  0.66723090  0.18446845  0.19507724     0.92200
Mg991      Mg  0.80037954  0.25686115  0.24184380     1.58000
O992        O  0.81773247  0.27544684  0.27673868    -0.81400
O993        O  0.78820556  0.23811878  0.20497308    -0.75700
O994        O  0.69457405  0.25764887  0.17746031    -0.81500
O995        O  0.68192509  0.16225263  0.27374880    -0.83200
O996        O  0.79702702  0.19452082  0.31654512    -0.81500
C997        C  0.76769501  0.23564589  0.19325439     0.86600
O998        O  0.79115772  0.22368060  0.26271449    -0.88700
O999        O  0.76321691  0.27090708  0.24864463    -0.88800
O1000       O  0.75800034  0.26630542  0.28907142    -0.75800
Mg1001     Mg  0.71426323  0.22288781  0.19305987     1.58000
O1002       O  0.71964079  0.29067420  0.18091783    -0.83200
H1003       H  0.74471449  0.15510078  0.22314848    -0.06900
O1004       O  0.74480935  0.20835661  0.29091163    -0.88500
H1005       H  0.72544721  0.22507851  0.31814732    -0.06800
H1006       H  0.81693761  0.20349744  0.24466818    -0.06900
C1007       C  0.72507562  0.21609419  0.30004072     0.86600
C1008       C  0.73563115  0.17320441  0.22367436     0.87200
C1009       C  0.79929116  0.20364226  0.25450457     0.87300
H1010       H  0.74589537  0.29667327  0.26948774    -0.06900
O1011       O  0.70531024  0.26979433  0.23540078    -0.75900
Mg1012     Mg  0.77743379  0.22940134  0.30022749     1.58000
H1013       H  0.67549022  0.24993213  0.24788869    -0.06900
C1014       C  0.69337605  0.15011159  0.29074279     0.92200
O1015       O  0.77424378  0.16031026  0.31001431    -0.83200
C1016       C  0.79210246  0.17157847  0.32095980     0.92300
O1017       O  0.67902101  0.20159749  0.18352657    -0.83100
Mg1018     Mg  0.74198907  0.28060573  0.21573480     1.58200
O1019       O  0.71644345  0.15377568  0.29548623    -0.81500
O1020       O  0.81023987  0.29186645  0.21954702    -0.83200
C1021       C  0.15071654  0.12905022  0.40667867     0.79800
N1022       N  0.13096947  0.11396814  0.40124619    -0.78500
C1023       C  0.11875707  0.10124344  0.41953187     0.82200
N1024       N  0.12686325  0.10325897  0.44344624    -0.78400
C1025       C  0.14680838  0.11761790  0.44935997     0.82300
N1026       N  0.15843646  0.13107022  0.43101741    -0.80200
C1027       C  0.15746328  0.12425795  0.59815535     0.79800
N1028       N  0.16395171  0.12668669  0.57355642    -0.78500
C1029       C  0.15145136  0.11347062  0.55577935     0.82200
N1030       N  0.13304378  0.09751388  0.56287761    -0.78400
C1031       C  0.12604481  0.09540154  0.58718997     0.82300
N1032       N  0.13859426  0.10859544  0.60482344    -0.80200
O1033       O  0.20332083  0.24743327  0.24645596    -0.88800
C1034       C  0.27041723  0.28372500  0.24106242     0.87300
Mg1035     Mg  0.19384822  0.22477917  0.27859792     1.58100
O1036       O  0.26503351  0.23085584  0.20247485    -0.88500
O1037       O  0.20738536  0.24426915  0.20575640    -0.75800
C1038       C  0.29278526  0.15189623  0.29620170     0.92300
O1039       O  0.23645041  0.27149494  0.29074406    -0.75600
O1040       O  0.27587194  0.16310748  0.30867223    -0.83100
Mg1041     Mg  0.21743459  0.28449726  0.25438334     1.58000
C1042       C  0.32251227  0.17896384  0.19894424     0.92200
O1043       O  0.19796271  0.30310890  0.22052915    -0.81400
H1044       H  0.24721526  0.21235771  0.17537907    -0.06800
C1045       C  0.30137185  0.22014248  0.26853123     0.87200
O1046       O  0.20529451  0.18875148  0.25829644    -0.75900
O1047       O  0.25030319  0.27582128  0.23297480    -0.88700
O1048       O  0.31899949  0.20237601  0.19550142    -0.81500
C1049       C  0.30108724  0.27933582  0.17378149     0.92400
C1050       C  0.20383369  0.30958728  0.19829519     0.92200
Mg1051     Mg  0.27780053  0.17671717  0.24027725     1.58000
O1052       O  0.29729433  0.15765006  0.27350719    -0.81400
O1053       O  0.25836181  0.19049675  0.20449728    -0.75700
O1054       O  0.27851303  0.28459911  0.17929836    -0.81500
O1055       O  0.18326990  0.29390293  0.27744266    -0.83200
O1056       O  0.21913728  0.17846192  0.31835810    -0.81500
C1057       C  0.25679909  0.21139677  0.19318680     0.86600
O1058       O  0.24574724  0.18560011  0.26271345    -0.88700
O1059       O  0.29281202  0.21327246  0.24820518    -0.88800
O1060       O  0.28929661  0.21743203  0.28880264    -0.75800
Mg1061     Mg  0.24401182  0.26418356  0.19498724     1.58000
O1062       O  0.31248352  0.26079265  0.18358197    -0.83200
H1063       H  0.17750799  0.23101238  0.22504778    -0.06900
O1064       O  0.23123152  0.23094051  0.29267051    -0.88500
H1065       H  0.24795448  0.25005024  0.32004936    -0.06800
H1066       H  0.22559333  0.15931295  0.24551574    -0.06900
C1067       C  0.23866102  0.25066017  0.30207472     0.86600
C1068       C  0.19518768  0.24071184  0.22587790     0.87200
C1069       C  0.22568288  0.17696782  0.25536319     0.87300
H1070       H  0.31924383  0.22951122  0.26893980    -0.06900
O1071       O  0.29071039  0.27175052  0.23791060    -0.75900
Mg1072     Mg  0.25296161  0.19797968  0.30047129     1.58000
H1073       H  0.27064946  0.30095068  0.25163587    -0.06900
C1074       C  0.17183331  0.28182876  0.29452558     0.92200
O1075       O  0.18413057  0.20044664  0.31257431    -0.83200
C1076       C  0.19632645  0.18300568  0.32351273     0.92300
O1077       O  0.22166809  0.29919488  0.18654565    -0.83100
Mg1078     Mg  0.30231199  0.23613377  0.21665118     1.58200
O1079       O  0.17641045  0.25874271  0.29867179    -0.81500
O1080       O  0.31116503  0.16691700  0.21609326    -0.83200
C1081       C  0.14914679  0.14806112  0.36386827    -0.09600
C1082       C  0.16307046  0.14307785  0.38579033     0.06600
C1083       C  0.18833249  0.15080096  0.38642691    -0.03300
C1084       C  0.19870814  0.16330777  0.36575778    -0.07800
C1085       C  0.18454754  0.16857323  0.34416286     0.05700
C1086       C  0.15955665  0.16058420  0.34328943    -0.02800
Br1087     Br  0.13918720  0.16483544  0.31396958    -0.02500
H1088       H  0.12987566  0.14223692  0.36259825     0.09600
H1089       H  0.21802297  0.16924727  0.36670821     0.07700
Br1090     Br  0.21034141  0.14407997  0.41408586    -0.02900
C1091       C  0.15573708  0.13981544  0.48957049    -0.09600
C1092       C  0.15539148  0.11749365  0.47573142     0.06600
C1093       C  0.15835633  0.09450231  0.48851694    -0.03300
C1094       C  0.15896326  0.09389829  0.51465143    -0.07800
C1095       C  0.15705599  0.11595581  0.52868849     0.05700
C1096       C  0.15658520  0.13920763  0.51593600    -0.02800
Br1097     Br  0.15382020  0.17035663  0.53349006    -0.02500
H1098       H  0.15336157  0.15761056  0.48002519     0.09600
H1099       H  0.15975721  0.07591529  0.52412235     0.07700
Br1100     Br  0.16056117  0.06312120  0.47116076    -0.02900
C1101       C  0.17219868  0.16506546  0.65418655    -0.09600
C1102       C  0.19791032  0.16075428  0.65722513     0.06600
C1103       C  0.21036024  0.14496221  0.64002037    -0.03300
C1104       C  0.19700729  0.13382363  0.62044592    -0.07800
C1105       C  0.17124601  0.13774913  0.61783735     0.05700
C1106       C  0.15882056  0.15351032  0.63490862    -0.02800
Br1107     Br  0.12377868  0.16064440  0.63206278    -0.02500
H1108       H  0.16241114  0.17734294  0.66699152     0.09600
H1109       H  0.20671909  0.12171247  0.60742020     0.07700
Br1110     Br  0.24573844  0.13889048  0.64133311    -0.02900
C1111       C  0.15593553  0.33846353  0.83586659    -0.09600
C1112       C  0.16802958  0.36136906  0.84061194     0.06600
C1113       C  0.19282897  0.36455641  0.83206231    -0.03300
C1114       C  0.20439157  0.34549476  0.81833587    -0.07800
C1115       C  0.19186398  0.32307619  0.81297331     0.05700
C1116       C  0.16761442  0.31942702  0.82232649    -0.02800
Br1117     Br  0.15024173  0.28823611  0.81867138    -0.02500
H1118       H  0.13715231  0.33523801  0.84265485     0.09600
H1119       H  0.22329569  0.34827879  0.81165025     0.07700
Br1120     Br  0.21271739  0.39348998  0.83953742    -0.02900
C1121       C  0.15764403  0.46159834  0.88683068    -0.09600
C1122       C  0.15196331  0.44982969  0.86413815     0.06600
C1123       C  0.14735754  0.46453550  0.84266243    -0.03300
C1124       C  0.14749529  0.49075131  0.84447509    -0.07800
C1125       C  0.15148704  0.50241771  0.86766031     0.05700
C1126       C  0.15731204  0.48762884  0.88877964    -0.02800
Br1127     Br  0.16383940  0.50197836  0.92103950    -0.02500
H1128       H  0.16098141  0.45041279  0.90349673     0.09600
H1129       H  0.14256627  0.50194624  0.82822694     0.07700
Br1130     Br  0.13736827  0.44974799  0.81156761    -0.02900
C1131       C  0.14960730  0.61254710  0.83650461    -0.09600
C1132       C  0.16333095  0.59111653  0.84353362     0.06600
C1133       C  0.18876137  0.58951587  0.83674014    -0.03300
C1134       C  0.19961315  0.60872372  0.82267317    -0.07800
C1135       C  0.18573678  0.62980648  0.81509651     0.05700
C1136       C  0.16052945  0.63178140  0.82241913    -0.02800
Br1137     Br  0.14057183  0.66086547  0.81521750    -0.02500
H1138       H  0.13020068  0.61437564  0.84196106     0.09600
H1139       H  0.21911064  0.60705923  0.81747569     0.07700
Br1140     Br  0.21035046  0.56266144  0.84731055    -0.02900
C1141       C  0.64074293  0.77908699  0.82329736    -0.09600
C1142       C  0.65679658  0.79388073  0.80843737     0.06600
C1143       C  0.65245028  0.82009425  0.80734231    -0.03300
C1144       C  0.63234009  0.83054578  0.82042811    -0.07800
C1145       C  0.61623749  0.81557007  0.83469326     0.05700
C1146       C  0.62075265  0.78969040  0.83639568    -0.02800
Br1147     Br  0.60136670  0.76834364  0.85787051    -0.02500
H1148       H  0.64364292  0.75905113  0.82481279     0.09600
H1149       H  0.62929010  0.85061163  0.81955416     0.07700
Br1150     Br  0.67334448  0.84325059  0.78938600    -0.02900
C1151       C  0.38874881  0.80087228  0.81541878    -0.09600
C1152       C  0.38642364  0.80629708  0.84093598     0.06600
C1153       C  0.36480277  0.79866658  0.85397205    -0.03300
C1154       C  0.34592221  0.78599300  0.84129916    -0.07800
C1155       C  0.34796853  0.78098037  0.81563775     0.05700
C1156       C  0.36974018  0.78846501  0.80263287    -0.02800
Br1157     Br  0.37553630  0.78130479  0.76785291    -0.02500
H1158       H  0.40530824  0.80664062  0.80527593     0.09600
H1159       H  0.32949041  0.78009170  0.85156940     0.07700
Br1160     Br  0.36042258  0.80375283  0.88929433    -0.02900
C1161       C  0.48819624  0.81644860  0.88072430    -0.09600
C1162       C  0.47527786  0.82266101  0.85874199     0.06600
C1163       C  0.48875626  0.82788406  0.83670684    -0.03300
C1164       C  0.51495551  0.82810071  0.83733897    -0.07800
C1165       C  0.52778547  0.82373634  0.85989563     0.05700
C1166       C  0.51421611  0.81707121  0.88149202    -0.02800
Br1167     Br  0.53027783  0.81020592  0.91294377    -0.02500
H1168       H  0.47793307  0.81264255  0.89781089     0.09600
H1169       H  0.52519524  0.83372717  0.82075640     0.07700
Br1170     Br  0.47222251  0.83831479  0.80651561    -0.02900
C1171       C  0.81830182  0.80519687  0.60909846    -0.09600
C1172       C  0.84304742  0.81288406  0.61327553     0.06600
C1173       C  0.85455771  0.80660047  0.63642194    -0.03300
C1174       C  0.84109951  0.79368725  0.65475702    -0.07800
C1175       C  0.81624949  0.78671415  0.65077346     0.05700
C1176       C  0.80491595  0.79221843  0.62752539    -0.02800
Br1177     Br  0.77185580  0.78106530  0.61920477    -0.02500
H1178       H  0.80915607  0.80948082  0.59148770     0.09600
H1179       H  0.85014925  0.78906359  0.67234894     0.07700
Br1180     Br  0.88889041  0.81359211  0.64431498    -0.02900
C1181       C  0.85220203  0.80698756  0.36249640    -0.09600
C1182       C  0.83917536  0.81441301  0.38410783     0.06600
C1183       C  0.81360520  0.80835112  0.38612130    -0.03300
C1184       C  0.80178195  0.79515084  0.36682089    -0.07800
C1185       C  0.81485841  0.78769997  0.34522211     0.05700
C1186       C  0.84038341  0.79389460  0.34317978    -0.02800
Br1187     Br  0.85976349  0.78677551  0.31379792    -0.02500
H1188       H  0.87177834  0.81151246  0.36048399     0.09600
H1189       H  0.78215676  0.79064634  0.36875971     0.07700
Br1190     Br  0.79327024  0.81898041  0.41375264    -0.02900
C1191       C  0.85135322  0.86289322  0.48500326    -0.09600
C1192       C  0.85459783  0.84024878  0.47215911     0.06600
C1193       C  0.85562487  0.81767587  0.48599346    -0.03300
C1194       C  0.85500291  0.81831542  0.51231154    -0.07800
C1195       C  0.85361002  0.84123816  0.52507023     0.05700
C1196       C  0.85076079  0.86354946  0.51112108    -0.02800
Br1197     Br  0.84674500  0.89564393  0.52681647    -0.02500
H1198       H  0.85019335  0.88036259  0.47464328     0.09600
H1199       H  0.85750927  0.80106648  0.52278852     0.07700
Br1200     Br  0.86116737  0.78597199  0.47015418    -0.02900
C1201       C  0.80959785  0.59317457  0.84005418    -0.09600
C1202       C  0.83479780  0.58880319  0.83472679     0.06600
C1203       C  0.84730313  0.60453152  0.81767054    -0.03300
C1204       C  0.83450591  0.62446188  0.80630816    -0.07800
C1205       C  0.80937487  0.62943246  0.81216828     0.05700
C1206       C  0.79684362  0.61332624  0.82912338    -0.02800
Br1207     Br  0.76211619  0.61691565  0.83754649    -0.02500
H1208       H  0.79994923  0.58121567  0.85332242     0.09600
H1209       H  0.84434727  0.63632492  0.79310832     0.07700
Br1210     Br  0.88169405  0.59915943  0.80903721    -0.02900
C1211       C  0.85141467  0.34358851  0.81984001    -0.09600
C1212       C  0.83871105  0.36145296  0.83420659     0.06600
C1213       C  0.81276410  0.35913476  0.83784339    -0.03300
C1214       C  0.80002972  0.33901898  0.82711299    -0.07800
C1215       C  0.81273867  0.32121959  0.81253740     0.05700
C1216       C  0.83869337  0.32368719  0.80886391    -0.02800
Br1217     Br  0.85810851  0.29970497  0.79044896    -0.02500
H1218       H  0.87146046  0.34497285  0.81739703     0.09600
H1219       H  0.78006291  0.33740329  0.82998998     0.07700
Br1220     Br  0.79414077  0.38175919  0.85861576    -0.02900
C1221       C  0.85267875  0.46198485  0.83868509    -0.09600
C1222       C  0.85311549  0.44834528  0.86121813     0.06600
C1223       C  0.84926031  0.46095597  0.88397974    -0.03300
C1224       C  0.84692819  0.48698946  0.88411196    -0.07800
C1225       C  0.84845654  0.50095019  0.86181807     0.05700
C1226       C  0.85055543  0.48818788  0.83881291    -0.02800
Br1227     Br  0.85392727  0.50554554  0.80744775    -0.02500
H1228       H  0.85565165  0.45241084  0.82107896     0.09600
H1229       H  0.84510394  0.49651238  0.90190897     0.07700
Br1230     Br  0.84748000  0.44351623  0.91547040    -0.02900
C1231       C  0.15503097  0.79951677  0.63390151    -0.09600
C1232       C  0.16861725  0.81449013  0.61712627     0.06600
C1233       C  0.19440221  0.81780732  0.62083851    -0.03300
C1234       C  0.20629963  0.80560863  0.64073900    -0.07800
C1235       C  0.19289023  0.79000823  0.65715622     0.05700
C1236       C  0.16694125  0.78716555  0.65374792    -0.02800
Br1237     Br  0.14660679  0.76813024  0.67646933    -0.02500
H1238       H  0.13501731  0.79755613  0.63162338     0.09600
H1239       H  0.22620902  0.80819334  0.64327923     0.07700
Br1240     Br  0.21383427  0.84017443  0.60047928    -0.02900
C1241       C  0.19153944  0.81791546  0.38693092    -0.09600
C1242       C  0.16534091  0.81777243  0.38658026     0.06600
C1243       C  0.15279412  0.80751520  0.36577456    -0.03300
C1244       C  0.16651210  0.79757517  0.34589374    -0.07800
C1245       C  0.19268878  0.79805950  0.34606640     0.05700
C1246       C  0.20525723  0.80831481  0.36682536    -0.02800
Br1247     Br  0.24102424  0.80815828  0.36945388    -0.02500
H1248       H  0.20138479  0.82584487  0.40274779     0.09600
H1249       H  0.15669190  0.78917769  0.33029873     0.07700
Br1250     Br  0.11703315  0.80521215  0.36407651    -0.02900
C1251       C  0.15344094  0.81678844  0.51655717    -0.09600
C1252       C  0.15632432  0.83980101  0.52889134     0.06600
C1253       C  0.16074765  0.86158102  0.51465863    -0.03300
C1254       C  0.15978439  0.86058324  0.48858822    -0.07800
C1255       C  0.15439744  0.83812289  0.47621515     0.05700
C1256       C  0.15238111  0.81581940  0.49028716    -0.02800
Br1257     Br  0.14508158  0.78433660  0.47479410    -0.02500
H1258       H  0.15004754  0.79990076  0.52733910     0.09600
H1259       H  0.16193859  0.87775708  0.47792979     0.07700
Br1260     Br  0.16712884  0.89340381  0.52997759    -0.02900
C1261       C  0.85554157  0.14872686  0.63244712    -0.09600
C1262       C  0.84182802  0.14194105  0.61104866     0.06600
C1263       C  0.81603602  0.14751450  0.61022459    -0.03300
C1264       C  0.80469859  0.15958606  0.63049510    -0.07800
C1265       C  0.81847607  0.16641951  0.65182006     0.05700
C1266       C  0.84421908  0.16080683  0.65265836    -0.02800
Br1267     Br  0.86475799  0.16757721  0.68134959    -0.02500
H1268       H  0.87528584  0.14436209  0.63363471     0.09600
H1269       H  0.78491096  0.16379144  0.62948119     0.07700
Br1270     Br  0.79470273  0.13787487  0.58300121    -0.02900
C1271       C  0.84428564  0.15106606  0.36514080    -0.09600
C1272       C  0.83139162  0.13472056  0.38113437     0.06600
C1273       C  0.80608722  0.12957252  0.37646403    -0.03300
C1274       C  0.79388590  0.14120522  0.35633753    -0.07800
C1275       C  0.80650495  0.15818632  0.34063303     0.05700
C1276       C  0.83208825  0.16293422  0.34511195    -0.02800
Br1277     Br  0.85177929  0.18417640  0.32379103    -0.02500
H1278       H  0.86399946  0.15448120  0.36816804     0.09600
H1279       H  0.77429973  0.13723126  0.35320688     0.07700
Br1280     Br  0.78783217  0.10582189  0.39630595    -0.02900
C1281       C  0.84233382  0.09279374  0.48441883    -0.09600
C1282       C  0.84812471  0.11421084  0.47027390     0.06600
C1283       C  0.85422454  0.13656813  0.48280194    -0.03300
C1284       C  0.85597611  0.13670278  0.50905565    -0.07800
C1285       C  0.85201798  0.11468403  0.52296934     0.05700
C1286       C  0.84417491  0.09289353  0.51051511    -0.02800
Br1287     Br  0.83640489  0.06259155  0.52832345    -0.02500
H1288       H  0.83750778  0.07551786  0.47501795     0.09600
H1289       H  0.86210873  0.15354900  0.51845610     0.07700
Br1290     Br  0.86341822  0.16632815  0.46484446    -0.02900
C1291       C  0.82943111  0.62823350  0.18746749    -0.09600
C1292       C  0.80334985  0.62942826  0.18532840     0.06600
C1293       C  0.79079501  0.61074630  0.17151003    -0.03300
C1294       C  0.80442910  0.59147208  0.16014359    -0.07800
C1295       C  0.83054728  0.59069977  0.16177562     0.05700
C1296       C  0.84307363  0.60933743  0.17558108    -0.02800
Br1297     Br  0.87873263  0.60954566  0.17950448    -0.02500
H1298       H  0.83930023  0.64229594  0.19816120     0.09600
H1299       H  0.79462193  0.57738509  0.14942573     0.07700
Br1300     Br  0.75506467  0.60987064  0.16825752    -0.02900
C1301       C  0.81089873  0.36190312  0.16293337    -0.09600
C1302       C  0.83704002  0.36254688  0.16273949     0.06600
C1303       C  0.85044375  0.34361706  0.17550070    -0.03300
C1304       C  0.83764255  0.32434205  0.18779696    -0.07800
C1305       C  0.81140453  0.32326220  0.18762212     0.05700
C1306       C  0.79799989  0.34258332  0.17509407    -0.02800
Br1307     Br  0.76215265  0.34484852  0.17449947    -0.02500
H1308       H  0.80039595  0.37629605  0.15313002     0.09600
H1309       H  0.84836039  0.31008422  0.19754922     0.07700
Br1310     Br  0.88624566  0.34376774  0.17785790    -0.02900
C1311       C  0.84394385  0.46266803  0.15524764    -0.09600
C1312       C  0.84597862  0.45006098  0.13225966     0.06600
C1313       C  0.84462705  0.46413921  0.10988718    -0.03300
C1314       C  0.84422666  0.49027940  0.11077186    -0.07800
C1315       C  0.84452363  0.50306005  0.13368922     0.05700
C1316       C  0.84312422  0.48900300  0.15612499    -0.02800
Br1317     Br  0.84284373  0.50458569  0.18843255    -0.02500
H1318       H  0.84463823  0.45213265  0.17262009     0.09600
H1319       H  0.84455377  0.50074721  0.09333833     0.07700
Br1320     Br  0.84326113  0.44868422  0.07748310    -0.02900
C1321       C  0.62794030  0.82820054  0.17408754    -0.09600
C1322       C  0.60965183  0.81259957  0.16348003     0.06600
C1323       C  0.61176607  0.78650122  0.16695360    -0.03300
C1324       C  0.63177791  0.77665726  0.18072248    -0.07800
C1325       C  0.65025314  0.79219648  0.19119257     0.05700
C1326       C  0.64809033  0.81835861  0.18770829    -0.02800
Br1327     Br  0.67267661  0.84174855  0.19918295    -0.02500
H1328       H  0.62682148  0.84830168  0.17138086     0.09600
H1329       H  0.63291104  0.75652148  0.18308483     0.07700
Br1330     Br  0.58934992  0.76301046  0.15177348    -0.02900
C1331       C  0.38582299  0.80111944  0.17877709    -0.09600
C1332       C  0.38289072  0.80329764  0.15277573     0.06600
C1333       C  0.36132669  0.79342973  0.14140693    -0.03300
C1334       C  0.34301463  0.78192758  0.15605381    -0.07800
C1335       C  0.34550537  0.78013333  0.18219847     0.05700
C1336       C  0.36736307  0.78978036  0.19357104    -0.02800
Br1337     Br  0.37396131  0.78708110  0.22886109    -0.02500
H1338       H  0.40238171  0.80861230  0.18766474     0.09600
H1339       H  0.32664114  0.77439138  0.14686896     0.07700
Br1340     Br  0.35645009  0.79399787  0.10576034    -0.02900
C1341       C  0.48182933  0.81211133  0.14780187    -0.09600
C1342       C  0.47016014  0.81683106  0.12463194     0.06600
C1343       C  0.48525052  0.81922341  0.10307903    -0.03300
C1344       C  0.51118443  0.81999537  0.10543394    -0.07800
C1345       C  0.52288101  0.81808036  0.12892461     0.05700
C1346       C  0.50801702  0.81256965  0.15008954    -0.02800
Br1347     Br  0.52198423  0.80798240  0.18286833    -0.02500
H1348       H  0.47057550  0.80969977  0.16448769     0.09600
H1349       H  0.52229379  0.82327394  0.08877962     0.07700
Br1350     Br  0.47174903  0.82180321  0.06977375    -0.02900
C1351       C  0.65035860  0.13640979  0.80022070    -0.09600
C1352       C  0.66046995  0.15881332  0.80966060     0.06600
C1353       C  0.65032987  0.16896249  0.83198746    -0.03300
C1354       C  0.62993327  0.15736100  0.84342605    -0.07800
C1355       C  0.61972452  0.13549610  0.83349157     0.05700
C1356       C  0.63030972  0.12466640  0.81209754    -0.02800
Br1357     Br  0.61781958  0.09392069  0.79851009    -0.02500
H1358       H  0.65776044  0.12809977  0.78329583     0.09600
H1359       H  0.62236517  0.16509201  0.86057118     0.07700
Br1360     Br  0.66378810  0.19764791  0.84895612    -0.02900
C1361       C  0.39055321  0.16699608  0.84223127    -0.09600
C1362       C  0.39145859  0.14094823  0.83950692     0.06600
C1363       C  0.37235612  0.12861828  0.82632604    -0.03300
C1364       C  0.35256360  0.14245870  0.81626659    -0.07800
C1365       C  0.35127444  0.16850436  0.81950329     0.05700
C1366       C  0.37064905  0.18083968  0.83242851    -0.02800
Br1367     Br  0.37200366  0.21659254  0.83585320    -0.02500
H1368       H  0.40517892  0.17657139  0.85242076     0.09600
H1369       H  0.33811392  0.13284519  0.80586676     0.07700
Br1370     Br  0.37302917  0.09313080  0.82064144    -0.02900
C1371       C  0.49363495  0.13507119  0.88266740    -0.09600
C1372       C  0.47964133  0.12749842  0.86187394     0.06600
C1373       C  0.49199457  0.12135694  0.83939910    -0.03300
C1374       C  0.51816231  0.12120601  0.83862593    -0.07800
C1375       C  0.53209721  0.12705599  0.86005938     0.05700
C1376       C  0.51968434  0.13503627  0.88183789    -0.02800
Br1377     Br  0.53767757  0.14496158  0.91125275    -0.02500
H1378       H  0.48427467  0.13999312  0.89996060     0.09600
H1379       H  0.52757840  0.11467916  0.82191077     0.07700
Br1380     Br  0.47413407  0.10985477  0.81048311    -0.02900
C1381       C  0.61015507  0.17144109  0.15433783    -0.09600
C1382       C  0.60645679  0.14587506  0.15897042     0.06600
C1383       C  0.62211028  0.13337941  0.17618094    -0.03300
C1384       C  0.64158320  0.14628525  0.18788561    -0.07800
C1385       C  0.64612684  0.17164825  0.18247281     0.05700
C1386       C  0.62976593  0.18439726  0.16585937    -0.02800
Br1387     Br  0.63230957  0.21966547  0.15892615    -0.02500
H1388       H  0.59812909  0.18122977  0.14119974     0.09600
H1389       H  0.65349301  0.13629942  0.20097788     0.07700
Br1390     Br  0.61721474  0.09878104  0.18470906    -0.02900
C1391       C  0.35755419  0.12810055  0.16361443    -0.09600
C1392       C  0.37911213  0.14088502  0.15564313     0.06600
C1393       C  0.38117783  0.16670445  0.16104526    -0.03300
C1394       C  0.36232513  0.17876241  0.17471967    -0.07800
C1395       C  0.34114158  0.16571677  0.18320940     0.05700
C1396       C  0.33869872  0.14016778  0.17707320    -0.02800
Br1397     Br  0.30946970  0.12089616  0.18501097    -0.02500
H1398       H  0.35523286  0.10841454  0.15938975     0.09600
H1399       H  0.36439974  0.19847805  0.17896116     0.07700
Br1400     Br  0.40829162  0.18709082  0.14929797    -0.02900
C1401       C  0.47915040  0.13309494  0.15028074    -0.09600
C1402       C  0.46677537  0.12575304  0.12826094     0.06600
C1403       C  0.48089075  0.12254743  0.10619947    -0.03300
C1404       C  0.50680789  0.12466850  0.10694096    -0.07800
C1405       C  0.51956587  0.12964315  0.12938682     0.05700
C1406       C  0.50537959  0.13493532  0.15107181    -0.02800
Br1407     Br  0.52053514  0.14218235  0.18276654    -0.02500
H1408       H  0.46855230  0.13584023  0.16733276     0.09600
H1409       H  0.51719372  0.12124708  0.08986798     0.07700
Br1410     Br  0.46612646  0.11485094  0.07429811    -0.02900
C1411       C  0.14385562  0.60314626  0.19539278    -0.09600
C1412       C  0.14930905  0.59806522  0.17034610     0.06600
C1413       C  0.16684851  0.61281560  0.15747664    -0.03300
C1414       C  0.17953378  0.63178710  0.17015585    -0.07800
C1415       C  0.17429575  0.63690446  0.19541936     0.05700
C1416       C  0.15586409  0.62257750  0.20794611    -0.02800
Br1417     Br  0.14668209  0.62752714  0.24236816    -0.02500
H1418       H  0.12993023  0.59210311  0.20514843     0.09600
H1419       H  0.19341479  0.64268240  0.16018882     0.07700
Br1420     Br  0.17419055  0.60745169  0.12273961    -0.02900
C1421       C  0.18744934  0.36830622  0.16100687    -0.09600
C1422       C  0.16158450  0.36950912  0.16463599     0.06600
C1423       C  0.14975832  0.35120667  0.17946037    -0.03300
C1424       C  0.16381233  0.33187015  0.19024784    -0.07800
C1425       C  0.18966289  0.33013719  0.18614940     0.05700
C1426       C  0.20155297  0.34878074  0.17151954    -0.02800
Br1427     Br  0.23704485  0.34945455  0.16623984    -0.02500
H1428       H  0.19663035  0.38233472  0.14956252     0.09600
H1429       H  0.15443944  0.31796647  0.20168289     0.07700
Br1430     Br  0.11450791  0.35226990  0.18596601    -0.02900
C1431       C  0.15436872  0.47150019  0.14872944    -0.09600
C1432       C  0.13307604  0.45659147  0.15213862     0.06600
C1433       C  0.11039651  0.46798607  0.15915980    -0.03300
C1434       C  0.10885129  0.49398761  0.16098612    -0.07800
C1435       C  0.12958387  0.50910175  0.15575537     0.05700
C1436       C  0.15273371  0.49769938  0.15029007    -0.02800
Br1437     Br  0.18161532  0.51700690  0.14144276    -0.02500
H1438       H  0.17181991  0.46291013  0.14306257     0.09600
H1439       H  0.09099442  0.50254277  0.16531576     0.07700
Br1440     Br  0.08066696  0.44893172  0.16549857    -0.02900
C1441       C  0.30926365  0.32093071  0.15432568    -0.09600
C1442       C  0.31392993  0.29501856  0.15485621     0.06600
C1443       C  0.32948666  0.28447805  0.13626331    -0.03300
C1444       C  0.33989710  0.29982074  0.11770899    -0.07800
C1445       C  0.33553585  0.32572451  0.11747443     0.05700
C1446       C  0.32012980  0.33630490  0.13606135    -0.02800
Br1447     Br  0.31248494  0.37144792  0.13674358    -0.02500
H1448       H  0.29718484  0.32930018  0.16827411     0.09600
H1449       H  0.35188264  0.29151817  0.10363818     0.07700
Br1450     Br  0.33629680  0.24918025  0.13427537    -0.02900
C1451       C  0.33652994  0.29633887  0.89079585    -0.09600
C1452       C  0.33770749  0.32255026  0.88927990     0.06600
C1453       C  0.32678674  0.33465486  0.86837568    -0.03300
C1454       C  0.31541435  0.32060753  0.84948651    -0.07800
C1455       C  0.31450246  0.29431818  0.85063568     0.05700
C1456       C  0.32516868  0.28218420  0.87182433    -0.02800
Br1457     Br  0.32390833  0.24659668  0.87708812    -0.02500
H1458       H  0.34483542  0.28674290  0.90667938     0.09600
H1459       H  0.30709815  0.33045321  0.83376518     0.07700
Br1460     Br  0.32543410  0.37048564  0.86505857    -0.02900
C1461       C  0.38595032  0.33898891  0.99099032    -0.09600
C1462       C  0.36321037  0.33903593  0.97783096     0.06600
C1463       C  0.34071068  0.33855938  0.99159471    -0.03300
C1464       C  0.34137083  0.33966949  0.01792476    -0.07800
C1465       C  0.36419399  0.34151511  0.03086132     0.05700
C1466       C  0.38662589  0.34011228  0.01712447    -0.02800
Br1467     Br  0.41883557  0.33951539  0.03299894    -0.02500
H1468       H  0.40343971  0.33900003  0.98077589     0.09600
H1469       H  0.32395742  0.34064765  0.02820469     0.07700
Br1470     Br  0.30869789  0.33937017  0.97548740    -0.02900
C1471       C  0.11976286  0.29619426  0.34147689    -0.09600
C1472       C  0.11087199  0.31904002  0.33213580     0.06600
C1473       C  0.12288479  0.33030805  0.31165110    -0.03300
C1474       C  0.14288237  0.31809942  0.30005637    -0.07800
C1475       C  0.15170967  0.29475118  0.30887769     0.05700
C1476       C  0.14011533  0.28407192  0.33030673    -0.02800
Br1477     Br  0.15145016  0.25383965  0.34643303    -0.02500
H1478       H  0.11110926  0.28797998  0.35790536     0.09600
H1479       H  0.15140960  0.32696002  0.28391587     0.07700
Br1480     Br  0.11285590  0.36260634  0.29923896    -0.02900
C1481       C  0.86144026  0.30061526  0.35080091    -0.09600
C1482       C  0.88136554  0.31047177  0.33680070     0.06600
C1483       C  0.88126598  0.30751209  0.31055574    -0.03300
C1484       C  0.86172090  0.29462427  0.29898981    -0.07800
C1485       C  0.84192591  0.28444008  0.31297866     0.05700
C1486       C  0.84187391  0.28769556  0.33924632    -0.02800
Br1487     Br  0.81509116  0.27644323  0.36039267    -0.02500
H1488       H  0.86100755  0.30307606  0.37092843     0.09600
H1489       H  0.86211034  0.29247593  0.27882428     0.07700
Br1490     Br  0.90612612  0.32211646  0.28911757    -0.02900
C1491       C  0.98267628  0.31630180  0.34639225    -0.09600
C1492       C  0.96899013  0.33879800  0.34615878     0.06600
C1493       C  0.98177439  0.36157811  0.34259974    -0.03300
C1494       C  0.00780514  0.36188631  0.34233823    -0.07800
C1495       C  0.02165369  0.33972849  0.34512936     0.05700
C1496       C  0.00893561  0.31660806  0.34583216    -0.02800
Br1497     Br  0.02635226  0.28532543  0.34911210    -0.02500
H1498       H  0.97306802  0.29863738  0.34890566     0.09600
H1499       H  0.01733158  0.37973871  0.34110811     0.07700
Br1500     Br  0.96464455  0.39300661  0.33863577    -0.02900
C1501       C  0.30590193  0.12868127  0.33457742    -0.09600
C1502       C  0.30713215  0.13123516  0.30836637     0.06600
C1503       C  0.32112706  0.11329422  0.29462044    -0.03300
C1504       C  0.33362121  0.09392248  0.30723336    -0.07800
C1505       C  0.33276769  0.09197233  0.33336050     0.05700
C1506       C  0.31853263  0.10939522  0.34704872    -0.02800
Br1507     Br  0.31471234  0.10708439  0.38275717    -0.02500
H1508       H  0.29506568  0.14178768  0.34558927     0.09600
H1509       H  0.34458769  0.08061054  0.29658117     0.07700
Br1510     Br  0.32393480  0.11319621  0.25870828    -0.02900
C1511       C  0.32017233  0.86584202  0.32278366    -0.09600
C1512       C  0.34505854  0.86201745  0.33014370     0.06600
C1513       C  0.35651308  0.83868177  0.32491856    -0.03300
C1514       C  0.34295953  0.81980614  0.31289877    -0.07800
C1515       C  0.31789827  0.82343991  0.30615344     0.05700
C1516       C  0.30655479  0.84687909  0.31103049    -0.02800
Br1517     Br  0.27303919  0.85486473  0.30076352    -0.02500
H1518       H  0.31112716  0.88364519  0.32640396     0.09600
H1519       H  0.35205063  0.80211277  0.30888572     0.07700
Br1520     Br  0.39096551  0.83168444  0.33225053    -0.02900
C1521       C  0.38685414  0.96583628  0.34031553    -0.09600
C1522       C  0.36462252  0.95210767  0.34217405     0.06600
C1523       C  0.34162022  0.96505962  0.34203217    -0.03300
C1524       C  0.34138654  0.99140842  0.34224526    -0.07800
C1525       C  0.36385375  0.00496920  0.34286243     0.05700
C1526       C  0.38666257  0.99193970  0.34067935    -0.02800
Br1527     Br  0.41830230  0.00879459  0.33924447    -0.02500
H1528       H  0.40466885  0.95613970  0.34005751     0.09600
H1529       H  0.32372100  0.00120061  0.34393830     0.07700
Br1530     Br  0.31036001  0.94784163  0.34488024    -0.02900
C1531       C  0.29899252  0.62999191  0.15652186    -0.09600
C1532       C  0.30055951  0.65628626  0.15562599     0.06600
C1533       C  0.31322425  0.66752957  0.13513798    -0.03300
C1534       C  0.32399334  0.65250696  0.11652541    -0.07800
C1535       C  0.32284946  0.62631405  0.11790487     0.05700
C1536       C  0.31007044  0.61507927  0.13809630    -0.02800
Br1537     Br  0.30644391  0.57939930  0.14104882    -0.02500
H1538       H  0.28921565  0.62086049  0.17177735     0.09600
H1539       H  0.33401187  0.66135980  0.10125743     0.07700
Br1540     Br  0.31621795  0.70314718  0.13068434    -0.02900
C1541       C  0.33255146  0.62364422  0.86894105    -0.09600
C1542       C  0.33643316  0.63673351  0.89146846     0.06600
C1543       C  0.32624528  0.66103013  0.89380363    -0.03300
C1544       C  0.31318951  0.67181679  0.87362651    -0.07800
C1545       C  0.30957012  0.65869770  0.85110289     0.05700
C1546       C  0.31917177  0.63424566  0.84902095    -0.02800
Br1547     Br  0.31614375  0.61508037  0.81884426    -0.02500
H1548       H  0.34027714  0.60501561  0.86662828     0.09600
H1549       H  0.30575929  0.69061161  0.87556240     0.07700
Br1550     Br  0.33073872  0.68105124  0.92322566    -0.02900
C1551       C  0.33708961  0.61208122  0.99022502    -0.09600
C1552       C  0.36085916  0.61648868  0.97990062     0.06600
C1553       C  0.38151281  0.61848105  0.99629271    -0.03300
C1554       C  0.37835286  0.61519766  0.02207407    -0.07800
C1555       C  0.35487124  0.60990194  0.03234630     0.05700
C1556       C  0.33401726  0.60856786  0.01621273    -0.02800
Br1557     Br  0.30167313  0.59910820  0.02837393    -0.02500
H1558       H  0.32112992  0.60989697  0.97795605     0.09600
H1559       H  0.39453503  0.61638006  0.03421314     0.07700
Br1560     Br  0.41474826  0.62566065  0.98475799    -0.02900
C1561       C  0.68485560  0.31304448  0.11047745    -0.09600
C1562       C  0.65882038  0.31498758  0.11249340     0.06600
C1563       C  0.64666903  0.30416143  0.13330326    -0.03300
C1564       C  0.66073617  0.29287827  0.15233785    -0.07800
C1565       C  0.68687894  0.29215667  0.15097549     0.05700
C1566       C  0.69890846  0.30162591  0.12945880    -0.02800
Br1567     Br  0.73417070  0.29771235  0.12421761    -0.02500
H1568       H  0.69432879  0.32074978  0.09426635     0.09600
H1569       H  0.65123589  0.28464039  0.16827214     0.07700
Br1570     Br  0.61091702  0.30284300  0.13584148    -0.02900
C1571       C  0.64980679  0.30127671  0.86344838    -0.09600
C1572       C  0.66338625  0.31033891  0.88401076     0.06600
C1573       C  0.68934820  0.30614483  0.88492163    -0.03300
C1574       C  0.70117798  0.29315898  0.86544541    -0.07800
C1575       C  0.68757671  0.28401181  0.84484497     0.05700
C1576       C  0.66152785  0.28822909  0.84403394    -0.02800
Br1577     Br  0.64100431  0.27830865  0.81627866    -0.02500
H1578       H  0.62987025  0.30457311  0.86234114     0.09600
H1579       H  0.72117350  0.29015220  0.86647422     0.07700
Br1580     Br  0.70978945  0.31924633  0.91129882    -0.02900
C1581       C  0.66137759  0.33161270  0.98536079    -0.09600
C1582       C  0.63900899  0.33058939  0.97165320     0.06600
C1583       C  0.61612710  0.32935543  0.98471282    -0.03300
C1584       C  0.61572233  0.33131627  0.01074030    -0.07800
C1585       C  0.63785925  0.33398780  0.02442870     0.05700
C1586       C  0.66095361  0.33323060  0.01165762    -0.02800
Br1587     Br  0.69213341  0.33709750  0.02891720    -0.02500
H1588       H  0.67906330  0.33278807  0.97558067     0.09600
H1589       H  0.59789050  0.33126914  0.02034223     0.07700
Br1590     Br  0.58464389  0.32539487  0.96787769    -0.02900
C1591       C  0.32104982  0.08632585  0.68168416    -0.09600
C1592       C  0.34572826  0.08970743  0.67352044     0.06600
C1593       C  0.35825818  0.11210711  0.67976479    -0.03300
C1594       C  0.34550245  0.13119046  0.69229936    -0.07800
C1595       C  0.32038433  0.12837169  0.69910070     0.05700
C1596       C  0.30841416  0.10530252  0.69451943    -0.02800
Br1597     Br  0.27548898  0.09795080  0.70675360    -0.02500
H1598       H  0.31132659  0.06903195  0.67766032     0.09600
H1599       H  0.35523559  0.14841404  0.69660687     0.07700
Br1600     Br  0.39312064  0.11731510  0.67311871    -0.02900
C1601       C  0.30169284  0.84031791  0.68562070    -0.09600
C1602       C  0.31625758  0.81951609  0.69287051     0.06600
C1603       C  0.34195048  0.81939270  0.68708325    -0.03300
C1604       C  0.35247004  0.83983654  0.67450883    -0.07800
C1605       C  0.33787599  0.86055367  0.66719705     0.05700
C1606       C  0.31218194  0.86064489  0.67285039    -0.02800
Br1607     Br  0.28999282  0.88682001  0.66189867    -0.02500
H1608       H  0.28190241  0.84078655  0.68983595     0.09600
H1609       H  0.37219369  0.83934985  0.67005410     0.07700
Br1610     Br  0.36327913  0.79119687  0.69389178    -0.02900
C1611       C  0.35697539  0.96102118  0.66495446    -0.09600
C1612       C  0.34990242  0.94943558  0.64249404     0.06600
C1613       C  0.34312431  0.96443508  0.62179937    -0.03300
C1614       C  0.34516705  0.99044213  0.62321372    -0.07800
C1615       C  0.35397212  0.00201293  0.64501910     0.05700
C1616       C  0.35921839  0.98718171  0.66630055    -0.02800
Br1617     Br  0.37269681  0.00135428  0.69633741    -0.02500
H1618       H  0.36263766  0.94965236  0.68083828     0.09600
H1619       H  0.34084227  0.00165820  0.60680234     0.07700
Br1620     Br  0.33189862  0.95023381  0.59079090    -0.02900
C1621       C  0.12184766  0.28522586  0.66046960    -0.09600
C1622       C  0.11995935  0.31138177  0.66186618     0.06600
C1623       C  0.13779331  0.32465894  0.67603184    -0.03300
C1624       C  0.15723595  0.31172274  0.68812904    -0.07800
C1625       C  0.15954014  0.28558959  0.68611831     0.05700
C1626       C  0.14137422  0.27231346  0.67230705    -0.02800
Br1627     Br  0.14117775  0.23639073  0.67016131    -0.02500
H1628       H  0.10821072  0.27474955  0.64981067     0.09600
H1629       H  0.17067737  0.32214646  0.69907790     0.07700
Br1630     Br  0.13563889  0.36022519  0.68074608    -0.02900
C1631       C  0.86504183  0.27192224  0.67267503    -0.09600
C1632       C  0.85091072  0.28766097  0.68852062     0.06600
C1633       C  0.85769857  0.31325795  0.69004375    -0.03300
C1634       C  0.87747131  0.32239463  0.67547998    -0.07800
C1635       C  0.89135944  0.30653924  0.65987728     0.05700
C1636       C  0.88511710  0.28105112  0.65865431    -0.02800
Br1637     Br  0.90245993  0.25815102  0.63712084    -0.02500
H1638       H  0.86062207  0.25220359  0.67112840     0.09600
H1639       H  0.88218380  0.34209776  0.67645894     0.07700
Br1640     Br  0.84130446  0.33712283  0.71132476    -0.02900
C1641       C  0.99313959  0.31258880  0.60973995    -0.09600
C1642       C  0.97968473  0.31381471  0.63224465     0.06600
C1643       C  0.99297256  0.31386941  0.65510807    -0.03300
C1644       C  0.01920974  0.31517506  0.65491089    -0.07800
C1645       C  0.03239237  0.31656210  0.63219554     0.05700
C1646       C  0.01916024  0.31389828  0.60953052    -0.02800
Br1647     Br  0.03557479  0.31303077  0.57754973    -0.02500
H1648       H  0.98324371  0.31213188  0.59203208     0.09600
H1649       H  0.02913317  0.31714805  0.67247688     0.07700
Br1650     Br  0.97637906  0.31555039  0.68688702    -0.02900
C1651       C  0.64198426  0.11230912  0.32198255    -0.09600
C1652       C  0.65521666  0.09110771  0.33023841     0.06600
C1653       C  0.68098583  0.08931891  0.32516808    -0.03300
C1654       C  0.69307959  0.10896105  0.31270899    -0.07800
C1655       C  0.67985232  0.13033252  0.30464394     0.05700
C1656       C  0.65389195  0.13171960  0.30916786    -0.02800
Br1657     Br  0.63356135  0.15992535  0.29960217    -0.02500
H1658       H  0.62213513  0.11384050  0.32557394     0.09600
H1659       H  0.71293127  0.10737394  0.30908733     0.07700
Br1660     Br  0.70090420  0.06127350  0.33581298    -0.02900
C1661       C  0.66742414  0.86443044  0.31504577    -0.09600
C1662       C  0.66451192  0.86298539  0.34106320     0.06600
C1663       C  0.67480999  0.84238608  0.35420608    -0.03300
C1664       C  0.68728984  0.82355010  0.34116219    -0.07800
C1665       C  0.68978634  0.82464455  0.31504108     0.05700
C1666       C  0.67989406  0.84555809  0.30196236    -0.02800
Br1667     Br  0.68382780  0.85056148  0.26657285    -0.02500
H1668       H  0.65963945  0.88015769  0.30475490     0.09600
H1669       H  0.69508419  0.80790639  0.35156863     0.07700
Br1670     Br  0.67372183  0.83933558  0.39007832    -0.02900
C1671       C  0.61210256  0.96264017  0.35066521    -0.09600
C1672       C  0.63536386  0.95057791  0.35164971     0.06600
C1673       C  0.65731418  0.96502977  0.34957062    -0.03300
C1674       C  0.65556953  0.99129262  0.34843651    -0.07800
C1675       C  0.63220165  0.00329863  0.34960892     0.05700
C1676       C  0.61032728  0.98863233  0.34968606    -0.02800
Br1677     Br  0.57729734  0.00289238  0.34915989    -0.02500
H1678       H  0.59507047  0.95175969  0.35177059     0.09600
H1679       H  0.67251246  0.00234169  0.34841365     0.07700
Br1680     Br  0.68997161  0.95023949  0.35127883    -0.02900
C1681       C  0.12950513  0.63764538  0.33228547    -0.09600
C1682       C  0.10972188  0.65126839  0.34298282     0.06600
C1683       C  0.10988966  0.67765215  0.34125111    -0.03300
C1684       C  0.12979857  0.68978589  0.32927177    -0.07800
C1685       C  0.14948663  0.67604221  0.31862349     0.05700
C1686       C  0.14920315  0.64975009  0.32014426    -0.02800
Br1687     Br  0.17612213  0.62963042  0.30750117    -0.02500
H1688       H  0.12977081  0.61739912  0.33354512     0.09600
H1689       H  0.12983785  0.71005741  0.32811748     0.07700
Br1690     Br  0.08444785  0.69814793  0.35613532    -0.02900
C1691       C  0.88286141  0.66474936  0.33374689    -0.09600
C1692       C  0.88243105  0.63870342  0.33685766     0.06600
C1693       C  0.86298881  0.62485404  0.32562898    -0.03300
C1694       C  0.84423763  0.63722899  0.31211167    -0.07800
C1695       C  0.84418797  0.66341584  0.30959105     0.05700
C1696       C  0.86404969  0.67719748  0.32041014    -0.02800
Br1697     Br  0.86764127  0.71289639  0.31714807    -0.02500
H1698       H  0.89767771  0.67561252  0.34221377     0.09600
H1699       H  0.82948239  0.62626067  0.30368542     0.07700
Br1700     Br  0.86148765  0.58891827  0.32702432    -0.02900
C1701       C  0.98184055  0.63558311  0.34681929    -0.09600
C1702       C  0.96908744  0.63182670  0.36955143     0.06600
C1703       C  0.98290011  0.63176470  0.39210174    -0.03300
C1704       C  0.00889244  0.63301484  0.39141690    -0.07800
C1705       C  0.02185109  0.63442046  0.36863280     0.05700
C1706       C  0.00808323  0.63679314  0.34619034    -0.02800
Br1707     Br  0.02404783  0.63857562  0.31409336    -0.02500
H1708       H  0.97154964  0.63575808  0.32934596     0.09600
H1709       H  0.01916352  0.63171518  0.40887943     0.07700
Br1710     Br  0.96759033  0.62935632  0.42461136    -0.02900
C1711       C  0.65409039  0.67129365  0.11627086    -0.09600
C1712       C  0.65723789  0.64542372  0.11336062     0.06600
C1713       C  0.67200368  0.63206652  0.13073790    -0.03300
C1714       C  0.68333190  0.64463597  0.15066541    -0.07800
C1715       C  0.67970540  0.67045509  0.15407350     0.05700
C1716       C  0.66499738  0.68386248  0.13647454    -0.02800
Br1717     Br  0.65995964  0.71947440  0.13816087    -0.02500
H1718       H  0.64255071  0.68166253  0.10313427     0.09600
H1719       H  0.69481989  0.63411846  0.16372451     0.07700
Br1720     Br  0.67770439  0.59669901  0.12768740    -0.02900
C1721       C  0.65060208  0.64863470  0.86073808    -0.09600
C1722       C  0.66236003  0.64583465  0.88417715     0.06600
C1723       C  0.68681707  0.65499194  0.88729263    -0.03300
C1724       C  0.69896838  0.66659495  0.86713364    -0.07800
C1725       C  0.68705594  0.66951770  0.84383394     0.05700
C1726       C  0.66266500  0.66034682  0.84070033    -0.02800
Br1727     Br  0.64567921  0.66166961  0.80902436    -0.02500
H1728       H  0.63195333  0.64134495  0.85785546     0.09600
H1729       H  0.71776857  0.67358850  0.86973992     0.07700
Br1730     Br  0.70513725  0.65076399  0.91791767    -0.02900
C1731       C  0.65561763  0.63412864  0.98592460    -0.09600
C1732       C  0.63366167  0.63109961  0.97186779     0.06600
C1733       C  0.61055580  0.63017502  0.98451075    -0.03300
C1734       C  0.60984850  0.63039730  0.01062298    -0.07800
C1735       C  0.63184041  0.63139570  0.02491174     0.05700
C1736       C  0.65493252  0.63412795  0.01228371    -0.02800
Br1737     Br  0.68631852  0.63478292  0.02962610    -0.02500
H1738       H  0.67351137  0.63462349  0.97646810     0.09600
H1739       H  0.59189652  0.62881551  0.01985592     0.07700
Br1740     Br  0.57919664  0.62780487  0.96713352    -0.02900
C1741       C  0.13795205  0.64875833  0.64851153    -0.09600
C1742       C  0.11758496  0.63944963  0.66216919     0.06600
C1743       C  0.11720347  0.64227889  0.68840119    -0.03300
C1744       C  0.13683857  0.65457776  0.70034953    -0.07800
C1745       C  0.15700741  0.66437930  0.68666445     0.05700
C1746       C  0.15751628  0.66120633  0.66039877    -0.02800
Br1747     Br  0.18466189  0.67226436  0.63958619    -0.02500
H1748       H  0.13863252  0.64640764  0.62837049     0.09600
H1749       H  0.13611639  0.65677641  0.72050108     0.07700
Br1750     Br  0.09131639  0.62859567  0.70921484    -0.02900
C1751       C  0.88850916  0.64152443  0.68910522    -0.09600
C1752       C  0.88787916  0.63936900  0.66294917     0.06600
C1753       C  0.86757950  0.64983116  0.64959442    -0.03300
C1754       C  0.84815138  0.66171891  0.66255100    -0.07800
C1755       C  0.84835798  0.66295476  0.68878052     0.05700
C1756       C  0.86894407  0.65304557  0.70205629    -0.02800
Br1757     Br  0.87191574  0.65586922  0.73779237    -0.02500
H1758       H  0.90407206  0.63377502  0.69958697     0.09600
H1759       H  0.83270822  0.66979390  0.65213826     0.07700
Br1760     Br  0.86602628  0.64949287  0.61367246    -0.02900
C1761       C  0.99038628  0.59470812  0.65797245    -0.09600
C1762       C  0.97698826  0.61676162  0.65286112     0.06600
C1763       C  0.99011838  0.63926230  0.64879185    -0.03300
C1764       C  0.01630623  0.63884713  0.64773756    -0.07800
C1765       C  0.02941695  0.61617050  0.65031375     0.05700
C1766       C  0.01635206  0.59420550  0.65653111    -0.02800
Br1767     Br  0.03303011  0.56272504  0.66185251    -0.02500
H1768       H  0.98049355  0.57736377  0.66147475     0.09600
H1769       H  0.02627470  0.65583532  0.64293641     0.07700
Br1770     Br  0.97326224  0.67011470  0.64117599    -0.02900
C1771       C  0.66702789  0.11735293  0.64801748    -0.09600
C1772       C  0.66299341  0.09400057  0.65975952     0.06600
C1773       C  0.67378684  0.08977202  0.68370033    -0.03300
C1774       C  0.68792722  0.10856866  0.69503034    -0.07800
C1775       C  0.69203635  0.13161244  0.68310260     0.05700
C1776       C  0.68141600  0.13598340  0.65937532    -0.02800
Br1777     Br  0.68466664  0.16753921  0.64232158    -0.02500
H1778       H  0.65896524  0.12127466  0.62980703     0.09600
H1779       H  0.69604931  0.10503469  0.71331210     0.07700
Br1780     Br  0.66975676  0.05953409  0.70297127    -0.02900
C1781       C  0.66923810  0.84469301  0.64972919    -0.09600
C1782       C  0.66388913  0.86630956  0.66383692     0.06600
C1783       C  0.67374471  0.86808711  0.68832680    -0.03300
C1784       C  0.68772987  0.84820151  0.69828711    -0.07800
C1785       C  0.69258453  0.82646711  0.68430391     0.05700
C1786       C  0.68346723  0.82498272  0.65962989    -0.02800
Br1787     Br  0.68816403  0.79584809  0.63918671    -0.02500
H1788       H  0.66200284  0.84288024  0.63087333     0.09600
H1789       H  0.69482702  0.84971524  0.71723342     0.07700
Br1790     Br  0.66776205  0.89612822  0.70996667    -0.02900
C1791       C  0.61230539  0.96779109  0.65778937    -0.09600
C1792       C  0.63420161  0.95419125  0.65268197     0.06600
C1793       C  0.65637646  0.96733725  0.64722592    -0.03300
C1794       C  0.65598537  0.99357473  0.64574168    -0.07800
C1795       C  0.63364629  0.00693389  0.64913668     0.05700
C1796       C  0.61188718  0.99392060  0.65607343    -0.02800
Br1797     Br  0.58104513  0.01102117  0.66287846    -0.02500
H1798       H  0.59513421  0.95794896  0.66203632     0.09600
H1799       H  0.67276896  0.00343301  0.64018528     0.07700
Br1800     Br  0.68670942  0.95045464  0.63817024    -0.02900
C1801       C  0.90646907  0.89981141  0.41993845    -0.09600
C1802       C  0.90116121  0.87966223  0.40386124     0.06600
C1803       C  0.91479954  0.87759676  0.38117114    -0.03300
C1804       C  0.93323533  0.89520995  0.37534885    -0.07800
C1805       C  0.93849767  0.91488672  0.39167694     0.05700
C1806       C  0.92494668  0.91722798  0.41407606    -0.02800
Br1807     Br  0.93176101  0.94339577  0.43771303    -0.02500
H1808       H  0.89636163  0.90200602  0.43736564     0.09600
H1809       H  0.94384802  0.89334656  0.35817835     0.07700
Br1810     Br  0.91089457  0.85069553  0.35780880    -0.02900
C1811       C  0.08141048  0.91944639  0.42028110    -0.09600
C1812       C  0.06906880  0.91739667  0.39729112     0.06600
C1813       C  0.07466883  0.89720844  0.38141690    -0.03300
C1814       C  0.09209567  0.87916009  0.38897478    -0.07800
C1815       C  0.10425904  0.88079030  0.41231873     0.05700
C1816       C  0.09885604  0.90152008  0.42796402    -0.02800
Br1817     Br  0.11464814  0.90760998  0.45968958    -0.02500
H1818       H  0.07705810  0.93496752  0.43257085     0.09600
H1819       H  0.09588299  0.86360511  0.37657162     0.07700
Br1820     Br  0.05889902  0.89349869  0.34937222    -0.02900
C1821       C  0.91729054  0.03313837  0.41198265    -0.09600
C1822       C  0.93313757  0.03882108  0.39191520     0.06600
C1823       C  0.92829512  0.06000032  0.37697295    -0.03300
C1824       C  0.90851381  0.07598308  0.38313111    -0.07800
C1825       C  0.89326891  0.07099765  0.40400973     0.05700
C1826       C  0.89732418  0.04880677  0.41799835    -0.02800
Br1827     Br  0.87574097  0.03791934  0.44464663    -0.02500
H1828       H  0.92060281  0.01642433  0.42311089     0.09600
H1829       H  0.90545007  0.09266470  0.37191061     0.07700
Br1830     Br  0.94813097  0.06754537  0.34803244    -0.02900
C1831       C  0.06602376  0.06596678  0.38696077    -0.09600
C1832       C  0.06317606  0.04544051  0.40314448     0.06600
C1833       C  0.07756227  0.04408153  0.42511689    -0.03300
C1834       C  0.09529087  0.06251078  0.43003131    -0.07800
C1835       C  0.09887056  0.08285374  0.41354306     0.05700
C1836       C  0.08344239  0.08477693  0.39207490    -0.02800
Br1837     Br  0.08353969  0.11319257  0.36995891    -0.02500
H1838       H  0.05438519  0.06747363  0.37041009     0.09600
H1839       H  0.10642324  0.06072150  0.44687783     0.07700
Br1840     Br  0.07306820  0.01785143  0.44940249    -0.02900
C1841       C  0.94246357  0.90133142  0.58207638    -0.09600
C1842       C  0.94116436  0.91227778  0.60580352     0.06600
C1843       C  0.92275468  0.90444518  0.62281212    -0.03300
C1844       C  0.90512486  0.88664529  0.61544309    -0.07800
C1845       C  0.90566493  0.87636722  0.59120598     0.05700
C1846       C  0.92514028  0.88334309  0.57471007    -0.02800
Br1847     Br  0.93030651  0.86825121  0.54248039    -0.02500
H1848       H  0.95706248  0.90693118  0.56917575     0.09600
H1849       H  0.89065714  0.88124102  0.62855488     0.07700
Br1850     Br  0.92121014  0.91756817  0.65613979    -0.02900
C1851       C  0.92356918  0.05047028  0.62056004    -0.09600
C1852       C  0.94144728  0.04309503  0.60297281     0.06600
C1853       C  0.94076069  0.05329208  0.57867181    -0.03300
C1854       C  0.92216040  0.07054804  0.57218743    -0.07800
C1855       C  0.90392540  0.07795057  0.58963418     0.05700
C1856       C  0.90484056  0.06768164  0.61418540    -0.02800
Br1857     Br  0.88030151  0.07443568  0.63956484    -0.02500
H1858       H  0.92383889  0.04226400  0.63915531     0.09600
H1859       H  0.92193784  0.07811570  0.55333174     0.07700
Br1860     Br  0.96431815  0.04331722  0.55349771    -0.02900
C1861       C  0.08501129  0.90475288  0.62479304    -0.09600
C1862       C  0.06755718  0.91192045  0.60662521     0.06600
C1863       C  0.06840195  0.90107250  0.58271953    -0.03300
C1864       C  0.08699779  0.88365096  0.57707656    -0.07800
C1865       C  0.10495975  0.87660503  0.59502217     0.05700
C1866       C  0.10365427  0.88722417  0.61929773    -0.02800
Br1867     Br  0.12742180  0.88040178  0.64545402    -0.02500
H1868       H  0.08443176  0.91329876  0.64315664     0.09600
H1869       H  0.08744972  0.87569432  0.55844971     0.07700
Br1870     Br  0.04502747  0.91021939  0.55695205    -0.02900
C1871       C  0.06694129  0.05602888  0.58526245    -0.09600
C1872       C  0.06865640  0.04284915  0.60792283     0.06600
C1873       C  0.08843507  0.04804922  0.62444950    -0.03300
C1874       C  0.10667327  0.06559424  0.61765339    -0.07800
C1875       C  0.10552987  0.07819335  0.59444981     0.05700
C1876       C  0.08494817  0.07366529  0.57847343    -0.02800
Br1877     Br  0.07931315  0.09163815  0.54771681    -0.02500
H1878       H  0.05153440  0.05235755  0.57263632     0.09600
H1879       H  0.12208415  0.06897279  0.63033928     0.07700
Br1880     Br  0.09117181  0.03157811  0.65633580    -0.02900
C1881       C  0.42011967  0.91025852  0.92352628    -0.09600
C1882       C  0.39478795  0.91321322  0.92907511     0.06600
C1883       C  0.37705561  0.89794127  0.91745908    -0.03300
C1884       C  0.38493228  0.87918166  0.90112512    -0.07800
C1885       C  0.41052659  0.87527408  0.89607971     0.05700
C1886       C  0.42824332  0.89158367  0.90724178    -0.02800
Br1887     Br  0.46379618  0.89018458  0.90195015    -0.02500
H1888       H  0.43373548  0.92220509  0.93255018     0.09600
H1889       H  0.37084507  0.86736381  0.89273737     0.07700
Br1890     Br  0.34202320  0.90195033  0.92379301    -0.02900
C1891       C  0.40931193  0.90795686  0.06881823    -0.09600
C1892       C  0.38516515  0.90714561  0.05886128     0.06600
C1893       C  0.36910798  0.88749607  0.06557219    -0.03300
C1894       C  0.37753708  0.86877965  0.08200570    -0.07800
C1895       C  0.40209442  0.86910519  0.09155737     0.05700
C1896       C  0.41797304  0.88922331  0.08490380    -0.02800
Br1897     Br  0.45145510  0.89313674  0.09727993    -0.02500
H1898       H  0.42173785  0.92306808  0.06350165     0.09600
H1899       H  0.36503583  0.85357780  0.08678093     0.07700
Br1900     Br  0.33595214  0.88532518  0.05218325    -0.02900
C1901       C  0.43226836  0.06178722  0.91133698    -0.09600
C1902       C  0.41395966  0.07882854  0.90292664     0.06600
C1903       C  0.38912434  0.07625326  0.91186438    -0.03300
C1904       C  0.38333521  0.05701831  0.92866914    -0.07800
C1905       C  0.40167250  0.04015625  0.93672839     0.05700
C1906       C  0.42626765  0.04251108  0.92796412    -0.02800
Br1907     Br  0.45216782  0.01977764  0.93824809    -0.02500
H1908       H  0.45133744  0.06316750  0.90471805     0.09600
H1909       H  0.36439635  0.05519093  0.93558365     0.07700
Br1910     Br  0.36210681  0.09846703  0.90316721    -0.02900
C1911       C  0.40720412  0.02944376  0.08214055    -0.09600
C1912       C  0.38693704  0.03303117  0.06588782     0.06600
C1913       C  0.37208471  0.05467878  0.06813776    -0.03300
C1914       C  0.37847551  0.07304335  0.08558767    -0.07800
C1915       C  0.39972391  0.07022265  0.10081138     0.05700
C1916       C  0.41363733  0.04775992  0.09958870    -0.02800
Br1917     Br  0.44124599  0.04079452  0.12153015    -0.02500
H1918       H  0.41854994  0.01267408  0.08065253     0.09600
H1919       H  0.36745086  0.09006654  0.08644678     0.07700
Br1920     Br  0.34361415  0.06026888  0.04699084    -0.02900
C1921       C  0.92248602  0.34946658  0.92338679    -0.09600
C1922       C  0.94022641  0.36692335  0.93124664     0.06600
C1923       C  0.94131741  0.39053513  0.91955340    -0.03300
C1924       C  0.92381428  0.39692843  0.90124158    -0.07800
C1925       C  0.90523458  0.37993598  0.89385518     0.05700
C1926       C  0.90518724  0.35556689  0.90464681    -0.02800
Br1927     Br  0.88156918  0.32990145  0.89616139    -0.02500
H1928       H  0.92187407  0.33115254  0.93218762     0.09600
H1929       H  0.92461553  0.41545697  0.89292891     0.07700
Br1930     Br  0.96596156  0.41495668  0.92858089    -0.02900
C1931       C  0.06245814  0.39149218  0.92173717    -0.09600
C1932       C  0.06528488  0.36928180  0.93544450     0.06600
C1933       C  0.08568130  0.35341487  0.93069106    -0.03300
C1934       C  0.10351039  0.36041420  0.91290120    -0.07800
C1935       C  0.10130403  0.38321630  0.89977755     0.05700
C1936       C  0.08011788  0.39854789  0.90391398    -0.02800
Br1937     Br  0.07332446  0.42875548  0.88534592    -0.02500
H1938       H  0.04648666  0.40352550  0.92515020     0.09600
H1939       H  0.11948109  0.34830651  0.90984109     0.07700
Br1940     Br  0.08985659  0.32227364  0.94824326    -0.02900
C1941       C  0.91672898  0.35287666  0.06880927    -0.09600
C1942       C  0.93544638  0.37003370  0.06249827     0.06600
C1943       C  0.93573074  0.39370300  0.07398699    -0.03300
C1944       C  0.91723447  0.40002763  0.09128786    -0.07800
C1945       C  0.89825446  0.38301911  0.09762315     0.05700
C1946       C  0.89819714  0.35909621  0.08622882    -0.02800
Br1947     Br  0.87253155  0.33466422  0.09195839    -0.02500
H1948       H  0.91631782  0.33473782  0.05979380     0.09600
H1949       H  0.91769487  0.41841003  0.09979703     0.07700
Br1950     Br  0.96054050  0.41834444  0.06592141    -0.02900
C1951       C  0.08114592  0.35882412  0.07198186    -0.09600
C1952       C  0.06151698  0.37510171  0.06593705     0.06600
C1953       C  0.05993429  0.39853887  0.07767809    -0.03300
C1954       C  0.07765703  0.40522659  0.09558956    -0.07800
C1955       C  0.09754340  0.38904757  0.10186920     0.05700
C1956       C  0.09927259  0.36559275  0.08955121    -0.02800
Br1957     Br  0.12655487  0.34248555  0.09386029    -0.02500
H1958       H  0.08274174  0.34104361  0.06238851     0.09600
H1959       H  0.07589268  0.42335573  0.10445421     0.07700
Br1960     Br  0.03468445  0.42257261  0.06876086    -0.02900
C1961       C  0.58257114  0.91477195  0.92097412    -0.09600
C1962       C  0.60429702  0.91141815  0.93526674     0.06600
C1963       C  0.61998730  0.89081352  0.93052985    -0.03300
C1964       C  0.61350058  0.87361275  0.91197188    -0.07800
C1965       C  0.59138379  0.87656614  0.89806729     0.05700
C1966       C  0.57600243  0.89760834  0.90246900    -0.02800
Br1967     Br  0.54655337  0.90471371  0.88307744    -0.02500
H1968       H  0.57061510  0.93082172  0.92434627     0.09600
H1969       H  0.62552746  0.85759036  0.90876049     0.07700
Br1970     Br  0.65031493  0.88551064  0.94895494    -0.02900
C1971       C  0.58754592  0.03586473  0.92022905    -0.09600
C1972       C  0.61067370  0.03760300  0.93230562     0.06600
C1973       C  0.62735245  0.05677101  0.92567038    -0.03300
C1974       C  0.62028405  0.07446917  0.90763926    -0.07800
C1975       C  0.59664391  0.07335133  0.89616591     0.05700
C1976       C  0.58039813  0.05344201  0.90224943    -0.02800
Br1977     Br  0.54864967  0.04838664  0.88625168    -0.02500
H1978       H  0.57477082  0.02093996  0.92521784     0.09600
H1979       H  0.63305339  0.08951728  0.90307600     0.07700
Br1980     Br  0.65953699  0.05966038  0.94115861    -0.02900
C1981       C  0.57724421  0.91406607  0.07761419    -0.09600
C1982       C  0.60068402  0.91337880  0.06604691     0.06600
C1983       C  0.61789157  0.89451452  0.07261065    -0.03300
C1984       C  0.61113210  0.87613938  0.09004523    -0.07800
C1985       C  0.58722251  0.87616002  0.10091400     0.05700
C1986       C  0.57039002  0.89574405  0.09497165    -0.02800
Br1987     Br  0.53813291  0.89919196  0.11038129    -0.02500
H1988       H  0.56406250  0.92874757  0.07275659     0.09600
H1989       H  0.62431092  0.86132968  0.09446780     0.07700
Br1990     Br  0.65046106  0.89288615  0.05773899    -0.02900
C1991       C  0.57033787  0.06774934  0.08265426    -0.09600
C1992       C  0.58887845  0.08060141  0.09627541     0.06600
C1993       C  0.61425991  0.07372829  0.09246309    -0.03300
C1994       C  0.62022236  0.05462806  0.07550781    -0.07800
C1995       C  0.60149467  0.04216478  0.06221127     0.05700
C1996       C  0.57642561  0.04885886  0.06584000    -0.02800
Br1997     Br  0.54981499  0.03308544  0.04768083    -0.02500
H1998       H  0.55075976  0.07236758  0.08484064     0.09600
H1999       H  0.63959893  0.04958295  0.07247167     0.07700
Br2000     Br  0.64205995  0.08940755  0.10882631    -0.02900
C2001       C  0.91500606  0.59766864  0.92831107    -0.09600
C2002       C  0.93397018  0.58036896  0.93384019     0.06600
C2003       C  0.93414170  0.55689419  0.92201494    -0.03300
C2004       C  0.91549899  0.55109532  0.90479306    -0.07800
C2005       C  0.89624778  0.56822669  0.89936503     0.05700
C2006       C  0.89600511  0.59171253  0.91144268    -0.02800
Br2007     Br  0.86906994  0.61531587  0.90798142    -0.02500
H2008       H  0.91445589  0.61546111  0.93799260     0.09600
H2009       H  0.91587239  0.53289977  0.89588191     0.07700
Br2010     Br  0.95838210  0.53151788  0.93006234    -0.02900
C2011       C  0.93165647  0.56477549  0.07404168    -0.09600
C2012       C  0.92957554  0.58892898  0.06399126     0.06600
C2013       C  0.91061830  0.60501079  0.07237926    -0.03300
C2014       C  0.89339801  0.59636749  0.09009863    -0.07800
C2015       C  0.89479788  0.57171574  0.09959325     0.05700
C2016       C  0.91463868  0.55605415  0.09175752    -0.02800
Br2017     Br  0.92063372  0.52304844  0.10501070    -0.02500
H2018       H  0.94657338  0.55252465  0.06781169     0.09600
H2019       H  0.87854113  0.60881565  0.09601824     0.07700
Br2020     Br  0.90764001  0.63864103  0.05998821    -0.02900
C2021       C  0.08041199  0.59600849  0.93609379    -0.09600
C2022       C  0.06195715  0.57806029  0.94081050     0.06600
C2023       C  0.06315225  0.55471893  0.92883838    -0.03300
C2024       C  0.08263570  0.54963659  0.91228697    -0.07800
C2025       C  0.10128521  0.56751159  0.90736782     0.05700
C2026       C  0.10004586  0.59098260  0.91955554    -0.02800
Br2027     Br  0.12517232  0.61637415  0.91605267    -0.02500
H2028       H  0.07969857  0.61386670  0.94564184     0.09600
H2029       H  0.08315254  0.53152372  0.90322580     0.07700
Br2030     Br  0.03905023  0.52891648  0.93523163    -0.02900
C2031       C  0.08804390  0.59647507  0.09720930    -0.09600
C2032       C  0.08375306  0.57464507  0.11143268     0.06600
C2033       C  0.06274701  0.55963471  0.10582949    -0.03300
C2034       C  0.04743561  0.56601731  0.08564849    -0.07800
C2035       C  0.05246961  0.58719779  0.07098575     0.05700
C2036       C  0.07259230  0.60277690  0.07708828    -0.02800
Br2037     Br  0.07967875  0.63257078  0.05824349    -0.02500
H2038       H  0.10390429  0.60835464  0.10122673     0.09600
H2039       H  0.03158794  0.55426280  0.08116478     0.07700
Br2040     Br  0.05310018  0.53076271  0.12515826    -0.02900
C2041       C  0.42514573  0.42413378  0.91615507    -0.09600
C2042       C  0.43669662  0.42090287  0.89287250     0.06600
C2043       C  0.42913788  0.40123767  0.87725144    -0.03300
C2044       C  0.41062220  0.38466312  0.88535960    -0.07800
C2045       C  0.39953318  0.38725286  0.90911110     0.05700
C2046       C  0.40666157  0.40765119  0.92438391    -0.02800
Br2047     Br  0.39150632  0.41499043  0.95617216    -0.02500
H2048       H  0.43076129  0.43949848  0.92809042     0.09600
H2049       H  0.40538375  0.36930104  0.87327244     0.07700
Br2050     Br  0.44381070  0.39632395  0.84488677    -0.02900
C2051       C  0.57053686  0.39313360  0.87421389    -0.09600
C2052       C  0.56721083  0.41404384  0.88961632     0.06600
C2053       C  0.58151586  0.41636870  0.91157643    -0.03300
C2054       C  0.59917353  0.39809753  0.91758624    -0.07800
C2055       C  0.60265813  0.37700668  0.90229079     0.05700
C2056       C  0.58793692  0.37450843  0.88044257    -0.02800
Br2057     Br  0.58875874  0.34532878  0.85959001    -0.02500
H2058       H  0.55911812  0.39105390  0.85759667     0.09600
H2059       H  0.61000840  0.40026223  0.93458233     0.07700
Br2060     Br  0.57671180  0.44350168  0.93462644    -0.02900
C2061       C  0.43580026  0.56508439  0.87757966    -0.09600
C2062       C  0.44364541  0.54624546  0.89411066     0.06600
C2063       C  0.43401639  0.54544095  0.91854438    -0.03300
C2064       C  0.41637896  0.56309413  0.92603865    -0.07800
C2065       C  0.40782652  0.58184623  0.90949840     0.05700
C2066       C  0.41802772  0.58288317  0.88497237    -0.02800
Br2067     Br  0.40966180  0.60829129  0.86075285    -0.02500
H2068       H  0.44354567  0.56589460  0.85885012     0.09600
H2069       H  0.40905609  0.56176803  0.94489970     0.07700
Br2070     Br  0.44450574  0.52049829  0.94237105    -0.02900
C2071       C  0.58520686  0.53698945  0.91140522    -0.09600
C2072       C  0.57359063  0.53931353  0.88801140     0.06600
C2073       C  0.57993274  0.55923615  0.87204174    -0.03300
C2074       C  0.59697210  0.57723492  0.88009964    -0.07800
C2075       C  0.60763708  0.57581006  0.90416430     0.05700
C2076       C  0.60212227  0.55500090  0.91963252    -0.02800
Br2077     Br  0.61710730  0.54967670  0.95194330    -0.02500
H2078       H  0.58039608  0.52150358  0.92366099     0.09600
H2079       H  0.60106654  0.59293532  0.86786766     0.07700
Br2080     Br  0.56495334  0.56297435  0.83960412    -0.02900
C2081       C  0.43001283  0.42262226  0.09685887    -0.09600
C2082       C  0.43452544  0.42206619  0.12268886     0.06600
C2083       C  0.41991863  0.40661350  0.13808664    -0.03300
C2084       C  0.40156327  0.39140312  0.12750370    -0.07800
C2085       C  0.39740575  0.39100321  0.10140519     0.05700
C2086       C  0.41162331  0.40745744  0.08608244    -0.02800
Br2087     Br  0.40726935  0.41085895  0.05049882    -0.02500
H2088       H  0.44129553  0.43456170  0.08495032     0.09600
H2089       H  0.39111915  0.37918178  0.13985935     0.07700
Br2090     Br  0.42568929  0.40435294  0.17350997    -0.02900
C2091       C  0.41426928  0.54757432  0.13976788    -0.09600
C2092       C  0.42897713  0.53394016  0.12302320     0.06600
C2093       C  0.42371894  0.53520901  0.09726230    -0.03300
C2094       C  0.40428249  0.55048313  0.08857836    -0.07800
C2095       C  0.38991138  0.56513199  0.10513533     0.05700
C2096       C  0.39508142  0.56329308  0.13123874    -0.02800
Br2097     Br  0.37879218  0.58275825  0.15674165    -0.02500
H2098       H  0.41866404  0.54702319  0.15958377     0.09600
H2099       H  0.40083229  0.55123573  0.06860436     0.07700
Br2100     Br  0.44323162  0.51708895  0.07318831    -0.02900
C2101       C  0.58826839  0.37957948  0.11688209    -0.09600
C2102       C  0.59904228  0.38192904  0.09291792     0.06600
C2103       C  0.59306041  0.40333178  0.07830606    -0.03300
C2104       C  0.57605154  0.42104591  0.08738082    -0.07800
C2105       C  0.56482813  0.41817613  0.11092199     0.05700
C2106       C  0.57137553  0.39741944  0.12591842    -0.02800
Br2107     Br  0.55773733  0.39260690  0.15883106    -0.02500
H2108       H  0.59266715  0.36355640  0.12860489     0.09600
H2109       H  0.57123903  0.43707446  0.07580788     0.07700
Br2110     Br  0.60788006  0.41046192  0.04630806    -0.02900
C2111       C  0.56788197  0.56292152  0.12581320    -0.09600
C2112       C  0.55781300  0.54696671  0.10778141     0.06600
C2113       C  0.56381249  0.55054738  0.08243368    -0.03300
C2114       C  0.58059107  0.56933445  0.07552424    -0.07800
C2115       C  0.59145560  0.58514364  0.09355994     0.05700
C2116       C  0.58435606  0.58206547  0.11903727    -0.02800
Br2117     Br  0.59480315  0.60371283  0.14574446    -0.02500
H2118       H  0.56260518  0.56061515  0.14527757     0.09600
H2119       H  0.58520167  0.57140073  0.05587969     0.07700
Br2120     Br  0.54896076  0.53055667  0.05664579    -0.02900
C2121       C  0.87943488  0.39060470  0.43342523    -0.09600
C2122       C  0.89344478  0.41282287  0.43384670     0.06600
C2123       C  0.91215762  0.41650305  0.41568152    -0.03300
C2124       C  0.91684366  0.39803115  0.39793132    -0.07800
C2125       C  0.90357942  0.37536979  0.39796605     0.05700
C2126       C  0.88454952  0.37176411  0.41593668    -0.02800
Br2127     Br  0.86677453  0.34077148  0.41943166    -0.02500
H2128       H  0.86527395  0.38743153  0.44756908     0.09600
H2129       H  0.93146330  0.40126373  0.38431764     0.07700
Br2130     Br  0.93336392  0.44542953  0.41523240    -0.02900
C2131       C  0.92667110  0.40752911  0.57464131    -0.09600
C2132       C  0.90268676  0.40851330  0.56430398     0.06600
C2133       C  0.88501977  0.39027447  0.57100187    -0.03300
C2134       C  0.89167637  0.37106780  0.58763935    -0.07800
C2135       C  0.91599411  0.36951805  0.59757642     0.05700
C2136       C  0.93352494  0.38831297  0.59110548    -0.02800
Br2137     Br  0.96686042  0.38981358  0.60444013    -0.02500
H2138       H  0.94027084  0.42165134  0.56952591     0.09600
H2139       H  0.87792804  0.35695954  0.59232693     0.07700
Br2140     Br  0.85180765  0.39081785  0.55753797    -0.02900
C2141       C  0.87580945  0.55918329  0.43362170    -0.09600
C2142       C  0.89298021  0.53968986  0.43755403     0.06600
C2143       C  0.91540112  0.53922824  0.42387599    -0.03300
C2144       C  0.92041675  0.55811348  0.40655085    -0.07800
C2145       C  0.90350755  0.57788104  0.40271163     0.05700
C2146       C  0.88093269  0.57834188  0.41640024    -0.02800
Br2147     Br  0.85768037  0.60572255  0.41437692    -0.02500
H2148       H  0.85881666  0.55990889  0.44460733     0.09600
H2149       H  0.93790368  0.55758731  0.39635086     0.07700
Br2150     Br  0.94058619  0.51420176  0.42954878    -0.02900
C2151       C  0.92334169  0.53502186  0.58087626    -0.09600
C2152       C  0.90056544  0.53690199  0.56820143     0.06600
C2153       C  0.88393663  0.55639367  0.57418029    -0.03300
C2154       C  0.89042285  0.57385113  0.59250699    -0.07800
C2155       C  0.91352964  0.57241631  0.60506067     0.05700
C2156       C  0.93003384  0.55239582  0.59912424    -0.02800
Br2157     Br  0.96179563  0.54650506  0.61500443    -0.02500
H2158       H  0.93616638  0.51998029  0.57627946     0.09600
H2159       H  0.87743826  0.58888313  0.59656874     0.07700
Br2160     Br  0.85228726  0.55993597  0.55768912    -0.02900
C2161       C  0.43315763  0.90054473  0.42912428    -0.09600
C2162       C  0.43829437  0.87533088  0.43404181     0.06600
C2163       C  0.42662766  0.85677322  0.41969650    -0.03300
C2164       C  0.40971998  0.86364333  0.40086704    -0.07800
C2165       C  0.40453962  0.88904159  0.39549278     0.05700
C2166       C  0.41687725  0.90767375  0.40993264    -0.02800
Br2167     Br  0.41362238  0.94331112  0.40511781    -0.02500
H2168       H  0.44239918  0.91484989  0.44007140     0.09600
H2169       H  0.40090311  0.84891554  0.39018835     0.07700
Br2170     Br  0.43374119  0.82192450  0.42491406    -0.02900
C2171       C  0.57225461  0.85480625  0.42289322    -0.09600
C2172       C  0.56806222  0.87168823  0.44243206     0.06600
C2173       C  0.58138480  0.89433287  0.44324332    -0.03300
C2174       C  0.59805528  0.90015902  0.42408090    -0.07800
C2175       C  0.60172953  0.88370426  0.40396422     0.05700
C2176       C  0.58890056  0.86059769  0.40363498    -0.02800
Br2177     Br  0.59115959  0.83720182  0.37648472    -0.02500
H2178       H  0.56167589  0.83755095  0.42209914     0.09600
H2179       H  0.60792547  0.91783730  0.42473707     0.07700
Br2180     Br  0.57635668  0.91852085  0.46929040    -0.02900
C2181       C  0.42434014  0.85447932  0.57901185    -0.09600
C2182       C  0.43127521  0.87300844  0.56183522     0.06600
C2183       C  0.41979055  0.89663514  0.56264478    -0.03300
C2184       C  0.40163569  0.90149995  0.58066062    -0.07800
C2185       C  0.39474477  0.88322997  0.59848821     0.05700
C2186       C  0.40630081  0.85925542  0.59731884    -0.02800
Br2187     Br  0.39991014  0.83217346  0.62023383    -0.02500
H2188       H  0.43344101  0.83633095  0.57844746     0.09600
H2189       H  0.39320792  0.91996220  0.58084636     0.07700
Br2190     Br  0.42922235  0.92322194  0.54026990    -0.02900
C2191       C  0.57371478  0.89462276  0.56661964    -0.09600
C2192       C  0.56142518  0.87160849  0.56884615     0.06600
C2193       C  0.56699062  0.85565865  0.58911399    -0.03300
C2194       C  0.58418945  0.86328308  0.60729006    -0.07800
C2195       C  0.59600504  0.88671665  0.60547969     0.05700
C2196       C  0.59105536  0.90219389  0.58451125    -0.02800
Br2197     Br  0.60846933  0.93300422  0.57804578    -0.02500
H2198       H  0.56981452  0.90672626  0.55073435     0.09600
H2199       H  0.58808215  0.85102001  0.62304203     0.07700
Br2200     Br  0.55176084  0.82335542  0.59236922    -0.02900
C2201       C  0.11398020  0.40971645  0.41591033    -0.09600
C2202       C  0.09578785  0.41518346  0.43388130     0.06600
C2203       C  0.07258638  0.40299813  0.43296979    -0.03300
C2204       C  0.06779638  0.38575117  0.41398734    -0.07800
C2205       C  0.08591831  0.38016070  0.39571367     0.05700
C2206       C  0.10938445  0.39232885  0.39695595    -0.02800
Br2207     Br  0.13572070  0.38746977  0.37301303    -0.02500
H2208       H  0.13182996  0.41921140  0.41657501     0.09600
H2209       H  0.04975600  0.37662318  0.41361637     0.07700
Br2210     Br  0.04679113  0.40969269  0.45700600    -0.02900
C2211       C  0.07479630  0.57946941  0.42445055    -0.09600
C2212       C  0.09006742  0.58473985  0.40366329     0.06600
C2213       C  0.11204380  0.57032027  0.40010861    -0.03300
C2214       C  0.11798753  0.55108733  0.41702693    -0.07800
C2215       C  0.10247417  0.54590917  0.43748387     0.05700
C2216       C  0.08078885  0.56031094  0.44121716    -0.02800
Br2217     Br  0.05836728  0.55404738  0.46859881    -0.02500
H2218       H  0.05796033  0.59026751  0.42774253     0.09600
H2219       H  0.13461319  0.53986874  0.41406193     0.07700
Br2220     Br  0.13404047  0.57446450  0.37202360    -0.02900
C2221       C  0.12315068  0.40198049  0.57575403    -0.09600
C2222       C  0.10319350  0.41223402  0.56221767     0.06600
C2223       C  0.07881875  0.40401501  0.56704421    -0.03300
C2224       C  0.07468736  0.38547862  0.58501560    -0.07800
C2225       C  0.09458495  0.37451019  0.59857809     0.05700
C2226       C  0.11919583  0.38326555  0.59381053    -0.02800
Br2227     Br  0.14862611  0.37080671  0.61031336    -0.02500
H2228       H  0.14195082  0.40851106  0.57210578     0.09600
H2229       H  0.05560010  0.37963227  0.58820193     0.07700
Br2230     Br  0.05055254  0.41784930  0.54960702    -0.02900
C2231       C  0.08667987  0.55730177  0.55862016    -0.09600
C2232       C  0.10836720  0.54296479  0.56216690     0.06600
C2233       C  0.12342286  0.54710835  0.58330469    -0.03300
C2234       C  0.11636668  0.56520839  0.60078771    -0.07800
C2235       C  0.09425215  0.57915827  0.59762618     0.05700
C2236       C  0.07951587  0.57530182  0.57606229    -0.02800
Br2237     Br  0.05003522  0.59455357  0.56864937    -0.02500
H2238       H  0.07510206  0.55421696  0.54226633     0.09600
H2239       H  0.12789835  0.56794486  0.61722446     0.07700
Br2240     Br  0.15342991  0.52824512  0.58912586    -0.02900
C2241       C  0.42627858  0.09793090  0.41601125    -0.09600
C2242       C  0.42808340  0.08194255  0.43685939     0.06600
C2243       C  0.41239552  0.06085832  0.43843539    -0.03300
C2244       C  0.39600162  0.05554934  0.41881703    -0.07800
C2245       C  0.39481321  0.07102122  0.39753035     0.05700
C2246       C  0.40990909  0.09261253  0.39634582    -0.02800
Br2247     Br  0.41106287  0.11400288  0.36737573    -0.02500
H2248       H  0.43851683  0.11400341  0.41455558     0.09600
H2249       H  0.38441653  0.03897325  0.41999560     0.07700
Br2250     Br  0.41371699  0.03787896  0.46615266    -0.02900
C2251       C  0.42059672  0.06210127  0.56183861    -0.09600
C2252       C  0.43254680  0.08523670  0.56413937     0.06600
C2253       C  0.42636208  0.10106439  0.58412946    -0.03300
C2254       C  0.40913842  0.09305380  0.60212720    -0.07800
C2255       C  0.39767347  0.06934292  0.60050468     0.05700
C2256       C  0.40314914  0.05409277  0.57950157    -0.02800
Br2257     Br  0.38727695  0.02261190  0.57251132    -0.02500
H2258       H  0.42504370  0.05008149  0.54613449     0.09600
H2259       H  0.40506129  0.10537509  0.61764174     0.07700
Br2260     Br  0.44087621  0.13369499  0.58739607    -0.02900
C2261       C  0.58993677  0.05550120  0.41637195    -0.09600
C2262       C  0.59371866  0.07167864  0.39588169     0.06600
C2263       C  0.57950562  0.09404007  0.39430796    -0.03300
C2264       C  0.56201899  0.09959133  0.41301636    -0.07800
C2265       C  0.55830889  0.08316691  0.43321250     0.05700
C2266       C  0.57238266  0.06098190  0.43479885    -0.02800
Br2267     Br  0.56735859  0.03694215  0.46115833    -0.02500
H2268       H  0.60049006  0.03822212  0.41797766     0.09600
H2269       H  0.55085434  0.11649431  0.41155471     0.07700
Br2270     Br  0.58131691  0.11676430  0.36641243    -0.02900
C2271       C  0.58788183  0.09713600  0.59699528    -0.09600
C2272       C  0.59967712  0.07358800  0.59567763     0.06600
C2273       C  0.59414402  0.05773574  0.57525809    -0.03300
C2274       C  0.57611849  0.06492717  0.55769377    -0.07800
C2275       C  0.56342480  0.08779327  0.55985007     0.05700
C2276       C  0.56982372  0.10426018  0.57931203    -0.02800
Br2277     Br  0.55405474  0.13637127  0.58254654    -0.02500
H2278       H  0.59209372  0.10971865  0.61228098     0.09600
H2279       H  0.57157177  0.05235354  0.54248238     0.07700
Br2280     Br  0.61101728  0.02644331  0.56957175    -0.02900
loop_ 
_geom_bond_atom_site_label_1 
_geom_bond_atom_site_label_2 
_geom_bond_distance 
_geom_bond_site_symmetry_2 
_ccdc_geom_bond_type 
N1            C6   1.351       .  A
N1            C5   1.351       .  A
N1           H33   1.037       .  S
N2            C9   1.350       .  A
N2           C10   1.350       .  A
N3            C8   1.349       .  A
N3            C7   1.352       .  A
N3           H34   1.038       .  S
N4           C11   1.353       .  A
N4           C12   1.352       .  A
C5           C13   1.387       .  A
C5           C21   1.413       .  A
C6           C22   1.412       .  A
C6           C14   1.386       .  A
C7           C15   1.386       .  A
C7           C24   1.412       .  A
C8           C23   1.411       .  A
C8           C16   1.387       .  A
C9           C21   1.411       .  A
C9           C17   1.386       .  A
C10          C24   1.412       .  A
C10          C18   1.387       .  A
C11          C19   1.386       .  A
C11          C22   1.414       .  A
C12          C20   1.386       .  A
C12          C23   1.413       .  A
C13          C14   1.377       .  A
C13          H25   1.082       .  S
C14          H26   1.082       .  S
C15          C16   1.377       .  A
C15          H27   1.082       .  S
C16          H28   1.083       .  S
C17          C18   1.372       .  A
C17          H29   1.082       .  S
C18          H30   1.082       .  S
C19          C20   1.372       .  A
C19          H31   1.082       .  S
C20          H32   1.082       .  S
C21        C2265   1.481       .  S
C22        C2275   1.486       .  S
C23        C2252   1.481       .  S
C24        C2242   1.485       .  S
N35          C40   1.352       .  A
N35          C39   1.353       .  A
N35          H67   1.040       .  S
N36          C43   1.348       .  A
N36          C44   1.348       .  A
N37          C42   1.352       .  A
N37          C41   1.353       .  A
N37          H68   1.039       .  S
N38          C45   1.351       .  A
N38          C46   1.350       .  A
C39          C47   1.388       .  A
C39          C55   1.413       .  A
C40          C56   1.410       .  A
C40          C48   1.386       .  A
C41          C49   1.387       .  A
C41          C58   1.414       .  A
C42          C57   1.413       .  A
C42          C50   1.387       .  A
C43          C55   1.407       .  A
C43          C51   1.386       .  A
C44          C58   1.408       .  A
C44          C52   1.386       .  A
C45          C53   1.386       .  A
C45          C56   1.410       .  A
C46          C54   1.386       .  A
C46          C57   1.411       .  A
C47          C48   1.372       .  A
C47          H59   1.082       .  S
C48          H60   1.082       .  S
C49          C50   1.375       .  A
C49          H61   1.082       .  S
C50          H62   1.082       .  S
C51          C52   1.372       .  A
C51          H63   1.083       .  S
C52          H64   1.082       .  S
C53          C54   1.372       .  A
C53          H65   1.082       .  S
C54          H66   1.082       .  S
C55        C2232   1.481       .  S
C56        C2222   1.481       .  S
C57        C2202   1.481       .  S
C58        C2215   1.481       .  S
N69          C74   1.354       .  A
N69          C73   1.352       .  A
N69         H101   1.039       .  S
N70          C77   1.349       .  A
N70          C78   1.351       .  A
N71          C76   1.352       .  A
N71          C75   1.354       .  A
N71         H102   1.039       .  S
N72          C79   1.348       .  A
N72          C80   1.348       .  A
C73          C81   1.388       .  A
C73          C89   1.413       .  A
C74          C90   1.413       .  A
C74          C82   1.387       .  A
C75          C83   1.387       .  A
C75          C92   1.413       .  A
C76          C91   1.413       .  A
C76          C84   1.388       .  A
C77          C89   1.410       .  A
C77          C85   1.387       .  A
C78          C92   1.410       .  A
C78          C86   1.386       .  A
C79          C87   1.386       .  A
C79          C90   1.407       .  A
C80          C88   1.386       .  A
C80          C91   1.407       .  A
C81          C82   1.372       .  A
C81          H93   1.082       .  S
C82          H94   1.082       .  S
C83          C84   1.371       .  A
C83          H95   1.082       .  S
C84          H96   1.082       .  S
C85          C86   1.371       .  A
C85          H97   1.082       .  S
C86          H98   1.082       .  S
C87          C88   1.371       .  A
C87          H99   1.083       .  S
C88         H100   1.082       .  S
C89        C2182   1.478       .  S
C90        C2192   1.482       .  S
C91        C2172   1.476       .  S
C92        C2162   1.483       .  S
N103        C108   1.351       .  A
N103        C107   1.350       .  A
N103        H135   1.038       .  S
N104        C111   1.350       .  A
N104        C112   1.350       .  A
N105        C110   1.351       .  A
N105        C109   1.352       .  A
N105        H136   1.037       .  S
N106        C113   1.351       .  A
N106        C114   1.350       .  A
C107        C115   1.386       .  A
C107        C123   1.410       .  A
C108        C124   1.414       .  A
C108        C116   1.387       .  A
C109        C117   1.387       .  A
C109        C126   1.414       .  A
C110        C125   1.412       .  A
C110        C118   1.387       .  A
C111        C123   1.410       .  A
C111        C119   1.387       .  A
C112        C126   1.411       .  A
C112        C120   1.386       .  A
C113        C121   1.387       .  A
C113        C124   1.414       .  A
C114        C122   1.386       .  A
C114        C125   1.411       .  A
C115        C116   1.378       .  A
C115        H127   1.082       .  S
C116        H128   1.082       .  S
C117        C118   1.377       .  A
C117        H129   1.082       .  S
C118        H130   1.082       .  S
C119        C120   1.371       .  A
C119        H131   1.082       .  S
C120        H132   1.082       .  S
C121        C122   1.371       .  A
C121        H133   1.082       .  S
C122        H134   1.082       .  S
C123       C2142   1.479       .  S
C124       C2122   1.489       .  S
C125       C2132   1.481       .  S
C126       C2152   1.483       .  S
N137        C142   1.355       .  A
N137        C141   1.357       .  A
N137        H169   1.041       .  S
N138        C145   1.345       .  A
N138        C146   1.350       .  A
N139        C144   1.352       .  A
N139        C143   1.352       .  A
N139        H170   1.045       .  S
N140        C147   1.345       .  A
N140        C148   1.350       .  A
C141        C149   1.387       .  A
C141        C157   1.420       .  A
C142        C158   1.418       .  A
C142        C150   1.387       .  A
C143        C151   1.385       .  A
C143        C160   1.402       .  A
C144        C159   1.401       .  A
C144        C152   1.386       .  A
C145        C157   1.411       .  A
C145        C153   1.389       .  A
C146        C160   1.408       .  A
C146        C154   1.384       .  A
C147        C155   1.389       .  A
C147        C158   1.409       .  A
C148        C156   1.384       .  A
C148        C159   1.407       .  A
C149        C150   1.377       .  A
C149        H161   1.082       .  S
C150        H162   1.082       .  S
C151        C152   1.369       .  A
C151        H163   1.083       .  S
C152        H164   1.083       .  S
C153        C154   1.377       .  A
C153        H165   1.082       .  S
C154        H166   1.082       .  S
C155        C156   1.376       .  A
C155        H167   1.082       .  S
C156        H168   1.082       .  S
C157       C2105   1.489       .  S
C158       C2112   1.480       .  S
C159       C2092   1.477       .  S
C160       C2082   1.478       .  S
N171        C176   1.352       .  A
N171        C175   1.351       .  A
N171        H203   1.041       .  S
N172        C179   1.348       .  A
N172        C180   1.348       .  A
N173        C178   1.352       .  A
N173        C177   1.353       .  A
N173        H204   1.041       .  S
N174        C181   1.349       .  A
N174        C182   1.349       .  A
C175        C183   1.388       .  A
C175        C191   1.411       .  A
C176        C192   1.410       .  A
C176        C184   1.387       .  A
C177        C185   1.387       .  A
C177        C194   1.413       .  A
C178        C193   1.413       .  A
C178        C186   1.387       .  A
C179        C191   1.406       .  A
C179        C187   1.385       .  A
C180        C194   1.408       .  A
C180        C188   1.387       .  A
C181        C189   1.386       .  A
C181        C192   1.408       .  A
C182        C190   1.386       .  A
C182        C193   1.408       .  A
C183        C184   1.373       .  A
C183        H195   1.082       .  S
C184        H196   1.082       .  S
C185        C186   1.374       .  A
C185        H197   1.082       .  S
C186        H198   1.082       .  S
C187        C188   1.373       .  A
C187        H199   1.082       .  S
C188        H200   1.082       .  S
C189        C190   1.372       .  A
C189        H201   1.082       .  S
C190        H202   1.082       .  S
C191       C2072   1.477       .  S
C192       C2062   1.479       .  S
C193       C2042   1.481       .  S
C194       C2052   1.480       .  S
N205        C210   1.349       .  A
N205        C209   1.347   1_655  A
N205        H237   1.037       .  S
N206        C213   1.349       .  A
N206        C214   1.349   1_554  A
N207        C212   1.350       .  A
N207        C211   1.351   1_655  A
N207        H238   1.037       .  S
N208        C215   1.351   1_556  A
N208        C216   1.349       .  A
C209        C217   1.387       .  A
C209        C225   1.408       .  A
C210        C226   1.405       .  A
C210        C218   1.386       .  A
C211        C219   1.387       .  A
C211        C228   1.412       .  A
C212        C227   1.411       .  A
C212        C220   1.387       .  A
C213        C225   1.410       .  A
C213        C221   1.387       .  A
C214        C228   1.409       .  A
C214        C222   1.386       .  A
C215        C223   1.385       .  A
C215        C226   1.409       .  A
C216        C224   1.387       .  A
C216        C227   1.410       .  A
C217        C218   1.376   1_455  A
C217        H229   1.082       .  S
C218        H230   1.082       .  S
C219        C220   1.377   1_455  A
C219        H231   1.082       .  S
C220        H232   1.082       .  S
C221        C222   1.373   1_554  A
C221        H233   1.082       .  S
C222        H234   1.082       .  S
C223        C224   1.370   1_554  A
C223        H235   1.082       .  S
C224        H236   1.082       .  S
C225       C2035   1.475       .  S
C226       C2012   1.476       .  S
C227       C2002   1.477       .  S
C228       C2022   1.479       .  S
N239        C244   1.353       .  A
N239        C243   1.352       .  A
N239        H271   1.024       .  S
N240        C247   1.350       .  A
N240        C248   1.352   1_554  A
N241        C246   1.350       .  A
N241        C245   1.351       .  A
N241        H272   1.028       .  S
N242        C249   1.351   1_556  A
N242        C250   1.351       .  A
C243        C251   1.388       .  A
C243        C259   1.416       .  A
C244        C260   1.414   1_565  A
C244        C252   1.386       .  A
C245        C253   1.387       .  A
C245        C262   1.411       .  A
C246        C261   1.410   1_565  A
C246        C254   1.387       .  A
C247        C259   1.414       .  A
C247        C255   1.388       .  A
C248        C262   1.412       .  A
C248        C256   1.385       .  A
C249        C257   1.387       .  A
C249        C260   1.413       .  A
C250        C258   1.387       .  A
C250        C261   1.411       .  A
C251        C252   1.376       .  A
C251        H263   1.082       .  S
C252        H264   1.082   1_565  S
C253        C254   1.375       .  A
C253        H265   1.083       .  S
C254        H266   1.083       .  S
C255        C256   1.370   1_554  A
C255        H267   1.082       .  S
C256        H268   1.082       .  S
C257        C258   1.368   1_554  A
C257        H269   1.082       .  S
C258        H270   1.082       .  S
C259       C1982   1.480       .  S
C260       C1995   1.481       .  S
C261       C1972   1.477       .  S
C262       C1962   1.482       .  S
N273        C278   1.351   1_655  A
N273        C277   1.350       .  A
N273        H305   1.038       .  S
N274        C281   1.352   1_556  A
N274        C282   1.352       .  A
N275        C280   1.349       .  A
N275        C279   1.349   1_455  A
N275        H306   1.037       .  S
N276        C283   1.349       .  A
N276        C284   1.349   1_554  A
C277        C285   1.387       .  A
C277        C293   1.412       .  A
C278        C294   1.411       .  A
C278        C286   1.386       .  A
C279        C287   1.386       .  A
C279        C296   1.408       .  A
C280        C295   1.409       .  A
C280        C288   1.387       .  A
C281        C293   1.413       .  A
C281        C289   1.386       .  A
C282        C296   1.413       .  A
C282        C290   1.386       .  A
C283        C291   1.386       .  A
C283        C294   1.409       .  A
C284        C292   1.386       .  A
C284        C295   1.409       .  A
C285        C286   1.377   1_655  A
C285        H297   1.082       .  S
C286        H298   1.082       .  S
C287        C288   1.376   1_655  A
C287        H299   1.082       .  S
C288        H300   1.082       .  S
C289        C290   1.374   1_554  A
C289        H301   1.082       .  S
C290        H302   1.082       .  S
C291        C292   1.371   1_554  A
C291        H303   1.082       .  S
C292        H304   1.082       .  S
C293       C1942   1.483       .  S
C294       C1952   1.479       .  S
C295       C1932   1.476       .  S
C296       C1922   1.480       .  S
N307        C312   1.352   1_556  A
N307        C311   1.352       .  A
N307        H339   1.040   1_545  S
N308        C315   1.348       .  A
N308        C316   1.348       .  A
N309        C314   1.353   1_556  A
N309        C313   1.352       .  A
N309        H340   1.040       .  S
N310        C317   1.350       .  A
N310        C318   1.349       .  A
C311        C319   1.386       .  A
C311        C327   1.410       .  A
C312        C328   1.414       .  A
C312        C320   1.388       .  A
C313        C321   1.387       .  A
C313        C330   1.412       .  A
C314        C329   1.413       .  A
C314        C322   1.388       .  A
C315        C327   1.407   1_565  A
C315        C323   1.386       .  A
C316        C330   1.405       .  A
C316        C324   1.386       .  A
C317        C325   1.386       .  A
C317        C328   1.410   1_565  A
C318        C326   1.386       .  A
C318        C329   1.408       .  A
C319        C320   1.373   1_556  A
C319        H331   1.082       .  S
C320        H332   1.082       .  S
C321        C322   1.370   1_556  A
C321        H333   1.082       .  S
C322        H334   1.082       .  S
C323        C324   1.372       .  A
C323        H335   1.082   1_565  S
C324        H336   1.082       .  S
C325        C326   1.374       .  A
C325        H337   1.082       .  S
C326        H338   1.082       .  S
C327       C1905   1.476       .  S
C328       C1912   1.483       .  S
C329       C1892   1.480       .  S
C330       C1882   1.475       .  S
N341        C346   1.352       .  A
N341        C345   1.351   1_455  A
N341        H373   1.036   1_545  S
N342        C349   1.351       .  A
N342        C350   1.352       .  A
N343        C348   1.349       .  A
N343        C347   1.350   1_455  A
N343        H374   1.036       .  S
N344        C351   1.352       .  A
N344        C352   1.351       .  A
C345        C353   1.386       .  A
C345        C361   1.413       .  A
C346        C362   1.415       .  A
C346        C354   1.387       .  A
C347        C355   1.387       .  A
C347        C364   1.411       .  A
C348        C363   1.410       .  A
C348        C356   1.387       .  A
C349        C361   1.413   1_565  A
C349        C357   1.387       .  A
C350        C364   1.413       .  A
C350        C358   1.386       .  A
C351        C359   1.386       .  A
C351        C362   1.414   1_565  A
C352        C360   1.386       .  A
C352        C363   1.412       .  A
C353        C354   1.377   1_655  A
C353        H365   1.082       .  S
C354        H366   1.082       .  S
C355        C356   1.375   1_655  A
C355        H367   1.083       .  S
C356        H368   1.082       .  S
C357        C358   1.371       .  A
C357        H369   1.082   1_565  S
C358        H370   1.082       .  S
C359        C360   1.371       .  A
C359        H371   1.082   1_565  S
C360        H372   1.082       .  S
C361       C1852   1.481       .  S
C362       C1872   1.487       .  S
C363       C1862   1.478       .  S
C364       C1842   1.480       .  S
N375        C380   1.352       .  A
N375        C379   1.352   1_565  A
N375        H407   1.038       .  S
N376        C383   1.349       .  A
N376        C384   1.350   1_455  A
N377        C382   1.348       .  A
N377        C381   1.348       .  A
N377        H408   1.038       .  S
N378        C385   1.349       .  A
N378        C386   1.351   1_455  A
C379        C387   1.387   1_545  A
C379        C395   1.415       .  A
C380        C396   1.414       .  A
C380        C388   1.387       .  A
C381        C389   1.387       .  A
C381        C398   1.408   1_565  A
C382        C397   1.405       .  A
C382        C390   1.386       .  A
C383        C395   1.410       .  A
C383        C391   1.387       .  A
C384        C398   1.410       .  A
C384        C392   1.386       .  A
C385        C393   1.387       .  A
C385        C396   1.411       .  A
C386        C394   1.385       .  A
C386        C397   1.408       .  A
C387        C388   1.378       .  A
C387        H399   1.082   1_565  S
C388        H400   1.082       .  S
C389        C390   1.376       .  A
C389        H401   1.082   1_565  S
C390        H402   1.082       .  S
C391        C392   1.374   1_455  A
C391        H403   1.082       .  S
C392        H404   1.082       .  S
C393        C394   1.372   1_455  A
C393        H405   1.082       .  S
C394        H406   1.082       .  S
C395       C1832   1.483       .  S
C396       C1812   1.482       .  S
C397       C1805   1.478       .  S
C398       C1822   1.479       .  S
C409        N410   1.365       .  A
C409        N414   1.360       .  A
C409       C1782   1.487       .  S
N410        C411   1.362       .  A
C411        N412   1.354       .  A
C411       C1792   1.477       .  S
N412        C413   1.353       .  A
C413        N414   1.355       .  A
C413       C2195   1.475       .  S
C415        N416   1.363       .  A
C415        N420   1.360       .  A
C415       C1772   1.492       .  S
N416        C417   1.359       .  A
C417        N418   1.356       .  A
C417       C2272   1.483       .  S
N418        C419   1.355       .  A
C419        N420   1.356       .  A
C419       C1795   1.473       .  S
C421        N422   1.364       .  A
C421        N426   1.361       .  A
C421       C1752   1.476       .  S
N422        C423   1.359       .  A
C423        N424   1.353       .  A
C423       C1762   1.472       .  S
N424        C425   1.350       .  A
C425        N426   1.359       .  A
C425       C2155   1.487       .  S
C427        N428   1.358       .  A
C427        N432   1.360       .  A
C427       C1742   1.473       .  S
N428        C429   1.355       .  A
C429        N430   1.355       .  A
C429       C2235   1.474       .  S
N430        C431   1.356       .  A
C431        N432   1.357       .  A
C431       C1765   1.468       .  S
C433        N434   1.356       .  A
C433        N438   1.367       .  A
C433       C1722   1.479       .  S
N434        C435   1.351       .  A
C435        N436   1.352       .  A
C435       C2075   1.475       .  S
N436        C437   1.356       .  A
C437        N438   1.365       .  A
C437       C1732   1.480       .  S
C439        N440   1.363       .  A
C439        N444   1.355       .  A
C439       C1712   1.472       .  S
N440        C441   1.363       .  A
C441        N442   1.361       .  A
C441       C1735   1.488       .  S
N442        C443   1.358       .  A
C443        N444   1.352       .  A
C443       C2115   1.490       .  S
C445        N446   1.357       .  A
C445        N450   1.366       .  A
C445       C1692   1.478       .  S
N446        C447   1.352       .  A
C447        N448   1.353       .  A
C447       C2145   1.473       .  S
N448        C449   1.355       .  A
C449        N450   1.363       .  A
C449       C1702   1.483       .  S
C451        N452   1.365       .  A
C451        N456   1.359       .  A
C451       C1682   1.479       .  S
N452        C453   1.362       .  A
C453        N454   1.356       .  A
C453       C1705   1.481       .  S
N454        C455   1.354       .  A
C455        N456   1.353       .  A
C455       C2212   1.483       .  S
C457        N458   1.354       .  A
C457        N462   1.364       .  A
C457       C1662   1.472       .  S
N458        C459   1.349       .  A
C459        N460   1.353       .  A
C459       C2175   1.471       .  S
N460        C461   1.357       .  A
C461        N462   1.361       .  A
C461       C1672   1.476       .  S
C463        N464   1.364       .  A
C463        N468   1.361       .  A
C463       C1652   1.476       .  S
N464        C465   1.360       .  A
C465        N466   1.354       .  A
C465       C1675   1.476       .  S
N466        C467   1.353       .  A
C467        N468   1.354       .  A
C467       C2262   1.481       .  S
C469        N470   1.359       .  A
C469        N474   1.365       .  A
C469       C1635   1.474       .  S
N470        C471   1.356       .  A
C471        N472   1.352       .  A
C471       C2135   1.483       .  S
N472        C473   1.356       .  A
C473        N474   1.362       .  A
C473       C1642   1.481       .  S
C475        N476   1.365       .  A
C475        N480   1.361       .  A
C475       C1622   1.481       .  S
N476        C477   1.360       .  A
C477        N478   1.355       .  A
C477       C1645   1.480       .  S
N478        C479   1.356       .  A
C479        N480   1.358       .  A
C479       C2225   1.495       .  S
C481        N482   1.364       .  A
C481        N486   1.358       .  A
C481       C1605   1.478       .  S
N482        C483   1.361       .  A
C483        N484   1.355       .  A
C483       C1612   1.473       .  S
N484        C485   1.355       .  A
C485        N486   1.353       .  A
C485       C2185   1.488       .  S
C487        N488   1.358       .  A
C487        N492   1.363       .  A
C487       C1592   1.479       .  S
N488        C489   1.356       .  A
C489        N490   1.354       .  A
C489       C2255   1.488       .  S
N490        C491   1.356       .  A
C491        N492   1.360       .  A
C491       C1615   1.475       .  S
C493        N494   1.368       .  A
C493        N498   1.360       .  A
C493       C1572   1.481       .  S
N494        C495   1.364       .  A
C495        N496   1.353       .  A
C495       C1582   1.478       .  S
N496        C497   1.351       .  A
C497        N498   1.354       .  A
C497       C2055   1.478       .  S
C499        N500   1.360       .  A
C499        N504   1.357       .  A
C499       C1562   1.472       .  S
N500        C501   1.359       .  A
C501        N502   1.360       .  A
C501       C1585   1.478       .  S
N502        C503   1.358       .  A
C503        N504   1.356       .  A
C503       C2102   1.488       .  S
C505        N506   1.369       .  A
C505        N510   1.358       .  A
C505       C1542   1.488       .  S
N506        C507   1.367       .  A
C507        N508   1.356       .  A
C507       C1552   1.487       .  S
N508        C509   1.354       .  A
C509        N510   1.352       .  A
C509       C2065   1.486       .  S
C511        N512   1.356       .  A
C511        N516   1.364       .  A
C511       C1535   1.479       .  S
N512        C513   1.353       .  A
C513        N514   1.360       .  A
C513       C2095   1.494       .  S
N514        C515   1.361       .  A
C515        N516   1.364       .  A
C515       C1555   1.484       .  S
C517        N518   1.361       .  A
C517        N522   1.366       .  A
C517       C1512   1.484       .  S
N518        C519   1.359       .  A
C519        N520   1.350       .  A
C519       C2165   1.494       .  S
N520        C521   1.353       .  A
C521        N522   1.360       .  A
C521       C1522   1.478       .  S
C523        N524   1.357       .  A
C523        N528   1.364       .  A
C523       C1505   1.473       .  S
N524        C525   1.353       .  A
C525        N526   1.354       .  A
C525       C2245   1.473       .  S
N526        C527   1.357       .  A
C527        N528   1.361       .  A
C527       C1525   1.477       .  S
C529        N530   1.361       .  A
C529        N534   1.364       .  A
C529       C1482   1.481       .  S
N530        C531   1.356       .  A
C531        N532   1.355       .  A
C531       C2125   1.481       .  S
N532        C533   1.355       .  A
C533        N534   1.359       .  A
C533       C1492   1.477       .  S
C535        N536   1.356       .  A
C535        N540   1.362       .  A
C535       C1472   1.466       .  S
N536        C537   1.354       .  A
C537        N538   1.356       .  A
C537       C2205   1.484       .  S
N538        C539   1.358       .  A
C539        N540   1.361       .  A
C539       C1495   1.478       .  S
C541        N542   1.359       .  A
C541        N546   1.369       .  A
C541       C1452   1.486       .  S
N542        C543   1.355       .  A
C543        N544   1.352       .  A
C543       C2045   1.481       .  S
N544        C545   1.355       .  A
C545        N546   1.366       .  A
C545       C1462   1.485       .  S
C547        N548   1.362       .  A
C547        N552   1.357       .  A
C547       C1445   1.476       .  S
N548        C549   1.361       .  A
C549        N550   1.360       .  A
C549       C1465   1.484       .  S
N550        C551   1.358       .  A
C551        N552   1.358       .  A
C551       C2085   1.495       .  S
C553        N554   1.356       .  A
C553        N558   1.361       .  A
C553       C1422   1.468       .  S
N554        C555   1.353       .  A
C555        N556   1.357       .  A
C555       C1955   1.486       .  S
N556        C557   1.358       .  A
C557        N558   1.360       .  A
C557       C1432   1.472       .  S
C559        N560   1.355       .  A
C559        N564   1.361       .  A
C559       C1412   1.462       .  S
N560        C561   1.355       .  A
C561        N562   1.353       .  A
C561       C2032   1.476       .  S
N562        C563   1.355       .  A
C563        N564   1.359       .  A
C563       C1435   1.472       .  S
C565        N566   1.360       .  A
C565        N570   1.365       .  A
C565       C1392   1.488       .  S
N566        C567   1.354       .  A
C567        N568   1.354       .  A
C567       C1915   1.476       .  S
N568        C569   1.357       .  A
C569        N570   1.362       .  A
C569       C1402   1.483       .  S
C571        N572   1.360       .  A
C571        N576   1.366       .  A
C571       C1382   1.475       .  S
N572        C573   1.354       .  A
C573        N574   1.353       .  A
C573       C1992   1.493       .  S
N574        C575   1.355       .  A
C575        N576   1.363       .  A
C575       C1405   1.488       .  S
C577        N578   1.359       .  A
C577        N582   1.353       .  A
C577       C1362   1.464       .  S
N578        C579   1.358       .  A
C579        N580   1.358       .  A
C579       C1372   1.469       .  S
N580        C581   1.358       .  A
C581        N582   1.352       .  A
C581       C1902   1.482       .  S
C583        N584   1.361       .  A
C583        N588   1.355       .  A
C583       C1355   1.459       .  S
N584        C585   1.359       .  A
C585        N586   1.355       .  A
C585       C1375   1.468       .  S
N586        C587   1.354       .  A
C587        N588   1.353       .  A
C587       C1975   1.473       .  S
C589        N590   1.364       .  A
C589        N594   1.358       .  A
C589       C1332   1.474       .  S
N590        C591   1.363       .  A
C591        N592   1.357       .  A
C591       C1342   1.486       .  S
N592        C593   1.354       .  A
C593        N594   1.355       .  A
C593       C1895   1.483       .  S
C595        N596   1.367       .  A
C595        N600   1.359       .  A
C595       C1322   1.484       .  S
N596        C597   1.364       .  A
C597        N598   1.356       .  A
C597       C1345   1.487       .  S
N598        C599   1.351       .  A
C599        N600   1.354       .  A
C599       C1985   1.475       .  S
C601        N602   1.357       .  A
C601        N606   1.365       .  A
C601       C1302   1.478       .  S
N602        C603   1.353       .  A
C603        N604   1.357       .  A
C603       C1945   1.482       .  S
N604        C605   1.359       .  A
C605        N606   1.363       .  A
C605       C1312   1.484       .  S
C607        N608   1.365       .  A
C607        N612   1.357       .  A
C607       C1295   1.475       .  S
N608        C609   1.363       .  A
C609        N610   1.358       .  A
C609       C1315   1.484       .  S
N610        C611   1.355       .  A
C611        N612   1.354       .  A
C611       C2015   1.480       .  S
C613        N614   1.358       .  A
C613        N618   1.365       .  A
C613       C1272   1.471       .  S
N614        C615   1.356       .  A
C615        N616   1.353       .  A
C615       C1825   1.477       .  S
N616        C617   1.354       .  A
C617        N618   1.362       .  A
C617       C1282   1.476       .  S
C619        N620   1.362       .  A
C619        N624   1.357       .  A
C619       C1262   1.483       .  S
N620        C621   1.360       .  A
C621        N622   1.360       .  A
C621       C1285   1.475       .  S
N622        C623   1.358       .  A
C623        N624   1.353       .  A
C623       C1855   1.485       .  S
C625        N626   1.357       .  A
C625        N630   1.364       .  A
C625       C1242   1.473       .  S
N626        C627   1.355       .  A
C627        N628   1.353       .  A
C627       C1815   1.485       .  S
N628        C629   1.357       .  A
C629        N630   1.360       .  A
C629       C1255   1.475       .  S
C631        N632   1.362       .  A
C631        N636   1.355       .  A
C631       C1232   1.467       .  S
N632        C633   1.359       .  A
C633        N634   1.358       .  A
C633       C1252   1.474       .  S
N634        C635   1.357       .  A
C635        N636   1.353       .  A
C635       C1865   1.482       .  S
C637        N638   1.355       .  A
C637        N642   1.359       .  A
C637       C1212   1.467       .  S
N638        C639   1.352       .  A
C639        N640   1.358       .  A
C639       C1925   1.484       .  S
N640        C641   1.359       .  A
C641        N642   1.358       .  A
C641       C1222   1.473       .  S
C643        N644   1.356       .  A
C643        N648   1.363       .  A
C643       C1202   1.468       .  S
N644        C645   1.354       .  A
C645        N646   1.353       .  A
C645       C2005   1.473       .  S
N646        C647   1.355       .  A
C647        N648   1.361       .  A
C647       C1225   1.476       .  S
C649        N650   1.360       .  A
C649        N654   1.364       .  A
C649       C1182   1.486       .  S
N650        C651   1.356       .  A
C651        N652   1.356       .  A
C651       C1802   1.487       .  S
N652        C653   1.356       .  A
C653        N654   1.361       .  A
C653       C1192   1.480       .  S
C655        N656   1.367       .  A
C655        N660   1.358       .  A
C655       C1172   1.486       .  S
N656        C657   1.362       .  A
C657        N658   1.355       .  A
C657       C1195   1.478       .  S
N658        C659   1.352       .  A
C659        N660   1.353       .  A
C659       C1845   1.479       .  S
C661        N662   1.362       .  A
C661        N666   1.356       .  A
C661       C1152   1.468       .  S
N662        C663   1.358       .  A
C663        N664   1.353       .  A
C663       C1162   1.467       .  S
N664        C665   1.351       .  A
C665        N666   1.355       .  A
C665       C1885   1.486       .  S
C667        N668   1.357       .  A
C667        N672   1.363       .  A
C667       C1145   1.471       .  S
N668        C669   1.355       .  A
C669        N670   1.354       .  A
C669       C1965   1.474       .  S
N670        C671   1.356       .  A
C671        N672   1.360       .  A
C671       C1165   1.471       .  S
O673       Mg675   2.153       .  S
O673       Mg681   2.170       .  S
O673        C708   1.235       .  S
C674        H713   1.081       .  S
C674        O687   1.236       .  S
C674        O711   1.269       .  A
Mg675       O704   2.158       .  S
Mg675       O719   2.270       .  S
Mg675       O715   2.273       .  S
Mg675       O686   2.289       .  S
O676       Mg718   2.162       .  S
O676       Mg701   2.148       .  S
O676        C697   1.237       .  S
O677        C708   1.269       .  A
O677       Mg701   2.295       .  S
C678       C1235   1.474       .  S
C678        O680   1.270       .  A
C678        O692   1.275       .  A
O679        C707   1.268       .  A
O679       Mg681   2.290       .  S
O680       Mg712   2.243       .  S
Mg681       O687   2.136       .  S
Mg681       O695   2.249       .  S
Mg681       O683   2.299       .  S
C682       C1745   1.478       .  S
C682        O720   1.269       .  A
C682        O688   1.276       .  A
O683        C690   1.274       .  A
H684        C697   1.081       .  S
C685        H710   1.081       .  S
C685        O699   1.235       .  S
C685        O700   1.269       .  A
O686        C709   1.268       .  A
O687       Mg701   2.159       .  S
O688       Mg718   2.305       .  S
C689       C1135   1.478       .  S
C689        O702   1.273       .  A
C689        O694   1.274       .  A
C690       C1545   1.482       .  S
C690        O717   1.273       .  A
Mg691       O698   2.127       .  S
Mg691       O699   2.151       .  S
Mg691       O692   2.306       .  S
Mg691       O693   2.301       .  S
Mg691       O720   2.239       .  S
O693        C697   1.271       .  A
O694       Mg701   2.284       .  S
O695        C714   1.271       .  A
O696        C716   1.273       .  A
O696       Mg712   2.283       .  S
O698       Mg712   2.152       .  S
O698        C709   1.235       .  S
O699       Mg718   2.143       .  S
O700       Mg712   2.295       .  S
Mg701       O717   2.281       .  S
O702       Mg718   2.274       .  S
H703        C708   1.081       .  S
O704       Mg712   2.126       .  S
O704        C707   1.234       .  S
H705        C707   1.081       .  S
H706        C709   1.081       .  S
O711       Mg718   2.295       .  S
C714       C1155   1.471       .  S
C714        O719   1.270       .  A
O715        C716   1.272       .  A
C716       C1602   1.482       .  S
O721       Mg723   2.155       .  S
O721       Mg729   2.159       .  S
O721        C756   1.235       .  S
C722        H761   1.081       .  S
C722        O735   1.235       .  S
C722        O759   1.269       .  A
Mg723       O752   2.169       .  S
Mg723       O767   2.293       .  S
Mg723       O763   2.279       .  S
Mg723       O734   2.290       .  S
O724       Mg766   2.163       .  S
O724       Mg749   2.148       .  S
O724        C745   1.236       .  S
O725        C756   1.270       .  A
O725       Mg749   2.304       .  S
C726       C1142   1.492       .  S
C726        O728   1.271       .  A
C726        O740   1.276       .  A
O727        C755   1.270       .  A
O727       Mg729   2.296       .  S
O728       Mg760   2.266       .  S
Mg729       O735   2.144       .  S
Mg729       O743   2.255       .  S
Mg729       O731   2.313       .  S
C730       C1725   1.473       .  S
C730        O768   1.271       .  A
C730        O736   1.274       .  A
O731        C738   1.275       .  A
H732        C745   1.081       .  S
C733        H758   1.081       .  S
C733        O747   1.235       .  S
C733        O748   1.269       .  A
O734        C757   1.268       .  A
O735       Mg749   2.148       .  S
O736       Mg766   2.295       .  S
C737       C1205   1.482       .  S
C737        O750   1.271       .  A
C737        O742   1.275       .  A
C738       C1755   1.474       .  S
C738        O765   1.271       .  A
Mg739       O746   2.135       .  S
Mg739       O747   2.161       .  S
Mg739       O740   2.303       .  S
Mg739       O741   2.296       .  S
Mg739       O768   2.255       .  S
O741        C745   1.270       .  A
O742       Mg749   2.307       .  S
O743        C762   1.271       .  A
O744        C764   1.274       .  A
O744       Mg760   2.288       .  S
O746       Mg760   2.156       .  S
O746        C757   1.234       .  S
O747       Mg766   2.143       .  S
O748       Mg760   2.295       .  S
Mg749       O765   2.261       .  S
O750       Mg766   2.256       .  S
H751        C756   1.081       .  S
O752       Mg760   2.144       .  S
O752        C755   1.236       .  S
H753        C755   1.081       .  S
H754        C757   1.081       .  S
O759       Mg766   2.297       .  S
C762       C1175   1.474       .  S
C762        O767   1.273       .  A
O763        C764   1.273       .  A
C764       C1785   1.480       .  S
O769       Mg771   2.148       .  S
O769       Mg777   2.162       .  S
O769        C804   1.235       .  S
C770        H809   1.081       .  S
C770        O783   1.236       .  S
C770        O807   1.270       .  A
Mg771       O800   2.161       .  S
Mg771       O815   2.285       .  S
Mg771       O811   2.285       .  S
Mg771       O782   2.296       .  S
O772       Mg814   2.157       .  S
O772       Mg797   2.155       .  S
O772        C793   1.235       .  S
O773        C804   1.268       .  A
O773       Mg797   2.291       .  S
C774       C1715   1.481       .  S
C774        O776   1.270       .  A
C774        O788   1.275       .  A
O775        C803   1.270       .  A
O775       Mg777   2.298       .  S
O776       Mg808   2.261       .  S
Mg777       O783   2.138       .  S
Mg777       O791   2.256       .  S
Mg777       O779   2.312       .  S
C778       C1292   1.478       .  S
C778        O816   1.271       .  A
C778        O784   1.277       .  A
O779        C786   1.276       .  A
H780        C793   1.081       .  S
C781        H806   1.081       .  S
C781        O795   1.235       .  S
C781        O796   1.270       .  A
O782        C805   1.270       .  A
O783       Mg797   2.158       .  S
O784       Mg814   2.317       .  S
C785       C1695   1.484       .  S
C785        O798   1.275       .  A
C785        O790   1.271       .  A
C786       C1185   1.488       .  S
C786        O813   1.273       .  A
Mg787       O794   2.142       .  S
Mg787       O795   2.156       .  S
Mg787       O788   2.311       .  S
Mg787       O789   2.301       .  S
Mg787       O816   2.257       .  S
O789        C793   1.270       .  A
O790       Mg797   2.279       .  S
O791        C810   1.273       .  A
O792        C812   1.273       .  A
O792       Mg808   2.284       .  S
O794       Mg808   2.154       .  S
O794        C805   1.236       .  S
O795       Mg814   2.155       .  S
O796       Mg808   2.301       .  S
Mg797       O813   2.280       .  S
O798       Mg814   2.282       .  S
H799        C804   1.081       .  S
O800       Mg808   2.143       .  S
O800        C803   1.235       .  S
H801        C803   1.081       .  S
H802        C805   1.081       .  S
O807       Mg814   2.300       .  S
C810       C1665   1.477       .  S
C810        O815   1.272       .  A
O811        C812   1.272       .  A
C812       C1325   1.489       .  S
O817       Mg819   2.144       .  S
O817       Mg825   2.157       .  S
O817        C852   1.237       .  S
C818        H857   1.081       .  S
C818        O831   1.235       .  S
C818        O855   1.268       .  A
Mg819       O848   2.162       .  S
Mg819       O863   2.312       .  S
Mg819       O859   2.261       .  S
Mg819       O830   2.301       .  S
O820       Mg862   2.162       .  S
O820       Mg845   2.126       .  S
O820        C841   1.235       .  S
O821        C852   1.271       .  A
O821       Mg845   2.301       .  S
C822       C1632   1.494       .  S
C822        O824   1.273       .  A
C822        O836   1.273       .  A
O823        C851   1.269       .  A
O823       Mg825   2.298       .  S
O824       Mg856   2.287       .  S
Mg825       O831   2.138       .  S
Mg825       O839   2.266       .  S
Mg825       O827   2.279       .  S
C826       C1265   1.481       .  S
C826        O864   1.271       .  A
C826        O832   1.275       .  A
O827        C834   1.271       .  A
H828        C841   1.081       .  S
C829        H854   1.081       .  S
C829        O843   1.235       .  S
C829        O844   1.268       .  A
O830        C853   1.270       .  A
O831       Mg845   2.159       .  S
O832       Mg862   2.299       .  S
C833       C1775   1.475       .  S
C833        O846   1.273       .  A
C833        O838   1.275       .  A
C834       C1352   1.483       .  S
C834        O861   1.272       .  A
Mg835       O842   2.145       .  S
Mg835       O843   2.158       .  S
Mg835       O836   2.276       .  S
Mg835       O837   2.284       .  S
Mg835       O864   2.260       .  S
O837        C841   1.267       .  A
O838       Mg845   2.298       .  S
O839        C858   1.271       .  A
O840        C860   1.273       .  A
O840       Mg856   2.283       .  S
O842       Mg856   2.158       .  S
O842        C853   1.235       .  S
O843       Mg862   2.134       .  S
O844       Mg856   2.291       .  S
Mg845       O861   2.256       .  S
O846       Mg862   2.265       .  S
H847        C852   1.081       .  S
O848       Mg856   2.154       .  S
O848        C851   1.235       .  S
H849        C851   1.081       .  S
H850        C853   1.081       .  S
O855       Mg862   2.291       .  S
C858       C1575   1.486       .  S
C858        O863   1.276       .  A
O859        C860   1.272       .  A
C860       C1215   1.472       .  S
C865        N866   1.364       .  A
C865        N870   1.360       .  A
C865       C1112   1.485       .  S
N866        C867   1.360       .  A
C867        N868   1.352       .  A
C867       C1122   1.469       .  S
N868        C869   1.351       .  A
C869        N870   1.355       .  A
C869       C1935   1.475       .  S
C871        N872   1.359       .  A
C871        N876   1.362       .  A
C871       C1132   1.480       .  S
N872        C873   1.356       .  A
C873        N874   1.355       .  A
C873       C2025   1.481       .  S
N874        C875   1.355       .  A
C875        N876   1.358       .  A
C875       C1125   1.472       .  S
O877       Mg879   2.147       .  S
O877       Mg885   2.158       .  S
O877        C912   1.235       .  S
C878        H917   1.081       .  S
C878        O891   1.234       .  S
C878        O915   1.268       .  A
Mg879       O908   2.163       .  S
Mg879       O923   2.295       .  S
Mg879       O919   2.265       .  S
Mg879       O890   2.295       .  S
O880       Mg922   2.161       .  S
O880       Mg905   2.141       .  S
O880        C901   1.236       .  S
O881        C912   1.270       .  A
O881       Mg905   2.303       .  S
C882       C1625   1.484       .  S
C882        O884   1.273       .  A
C882        O896   1.278       .  A
O883        C911   1.270       .  A
O883       Mg885   2.296       .  S
O884       Mg916   2.268       .  S
Mg885       O891   2.141       .  S
Mg885       O899   2.256       .  S
Mg885       O887   2.284       .  S
C886       C1115   1.473       .  S
C886        O924   1.273       .  A
C886        O892   1.272       .  A
O887        C894   1.272       .  A
H888        C901   1.081       .  S
C889        H914   1.081       .  S
C889        O903   1.236       .  S
C889        O904   1.271       .  A
O890        C913   1.268       .  A
O891       Mg905   2.157       .  S
O892       Mg922   2.279       .  S
C893       C1455   1.495       .  S
C893        O906   1.274       .  A
C893        O898   1.275       .  A
C894       C1365   1.470       .  S
C894        O921   1.271       .  A
Mg895       O902   2.145       .  S
Mg895       O903   2.163       .  S
Mg895       O896   2.328       .  S
Mg895       O897   2.297       .  S
Mg895       O924   2.270       .  S
O897        C901   1.270       .  A
O898       Mg905   2.315       .  S
O899        C918   1.270       .  A
O900        C920   1.277       .  A
O900       Mg916   2.316       .  S
O902       Mg916   2.147       .  S
O902        C913   1.234       .  S
O903       Mg922   2.159       .  S
O904       Mg916   2.303       .  S
Mg905       O921   2.255       .  S
O906       Mg922   2.279       .  S
H907        C912   1.081       .  S
O908       Mg916   2.150       .  S
O908        C911   1.236       .  S
H909        C911   1.081       .  S
H910        C913   1.081       .  S
O915       Mg922   2.293       .  S
C918       C1595   1.476       .  S
C918        O923   1.273       .  A
O919        C920   1.272       .  A
C920       C1102   1.482       .  S
O925       Mg927   2.153       .  S
O925       Mg933   2.162       .  S
O925        C960   1.235       .  S
C926        H965   1.081       .  S
C926        O939   1.236       .  S
C926        O963   1.271       .  A
Mg927       O956   2.161       .  S
Mg927       O971   2.292       .  S
Mg927       O967   2.274       .  S
Mg927       O938   2.294       .  S
O928       Mg970   2.153       .  S
O928       Mg953   2.142       .  S
O928        C949   1.236       .  S
O929        C960   1.270       .  A
O929       Mg953   2.300       .  S
C930       C1685   1.473       .  S
C930        O932   1.271       .  A
C930        O944   1.273       .  A
O931        C959   1.270       .  A
O931       Mg933   2.299       .  S
O932       Mg964   2.271       .  S
Mg933       O939   2.156       .  S
Mg933       O947   2.280       .  S
Mg933       O935   2.311       .  S
C934       C1415   1.477       .  S
C934        O972   1.268       .  A
C934        O940   1.276       .  A
O935        C942   1.275       .  A
H936        C949   1.081       .  S
C937        H962   1.081       .  S
C937        O951   1.236       .  S
C937        O952   1.270       .  A
O938        C961   1.268       .  A
O939       Mg953   2.160       .  S
O940       Mg970   2.307       .  S
C941       C1532   1.491       .  S
C941        O954   1.273       .  A
C941        O946   1.275       .  A
C942       C1335   1.485       .  S
C942        O969   1.273       .  A
Mg943       O950   2.126       .  S
Mg943       O951   2.154       .  S
Mg943       O944   2.299       .  S
Mg943       O945   2.296       .  S
Mg943       O972   2.235       .  S
O945        C949   1.270       .  A
O946       Mg953   2.315       .  S
O947        C966   1.274       .  A
O948        C968   1.272       .  A
O948       Mg964   2.277       .  S
O950       Mg964   2.145       .  S
O950        C961   1.234       .  S
O951       Mg970   2.143       .  S
O952       Mg964   2.298       .  S
Mg953       O969   2.260       .  S
O954       Mg970   2.268       .  S
H955        C960   1.081       .  S
O956       Mg964   2.149       .  S
O956        C959   1.235       .  S
H957        C959   1.081       .  S
H958        C961   1.081       .  S
O963       Mg970   2.302       .  S
C966       C1515   1.481       .  S
C966        O971   1.273       .  A
O967        C968   1.273       .  A
C968       C1245   1.470       .  S
O973       Mg975   2.150       .  S
O973       Mg981   2.163       .  S
O973       C1008   1.235       .  S
C974       H1013   1.081       .  S
C974        O987   1.235       .  S
C974       O1011   1.270       .  A
Mg975      O1004   2.154       .  S
Mg975      O1019   2.307       .  S
Mg975      O1015   2.276       .  S
Mg975       O986   2.300       .  S
O976      Mg1018   2.149       .  S
O976      Mg1001   2.153       .  S
O976        C997   1.236       .  S
O977       C1008   1.269       .  A
O977      Mg1001   2.295       .  S
C978       C1485   1.485       .  S
C978        O980   1.271       .  A
C978        O992   1.277       .  A
O979       C1007   1.268       .  A
O979       Mg981   2.293       .  S
O980      Mg1012   2.261       .  S
Mg981       O987   2.137       .  S
Mg981       O995   2.242       .  S
Mg981       O983   2.309       .  S
C982       C1305   1.489       .  S
C982       O1020   1.274       .  A
C982        O988   1.273       .  A
O983        C990   1.275       .  A
H984        C997   1.081       .  S
C985       H1010   1.081       .  S
C985        O999   1.236       .  S
C985       O1000   1.271       .  A
O986       C1009   1.270       .  A
O987      Mg1001   2.148       .  S
O988      Mg1018   2.298       .  S
C989       C1565   1.471       .  S
C989       O1002   1.272       .  A
C989        O994   1.271       .  A
C990       C1385   1.485       .  S
C990       O1017   1.270       .  A
Mg991       O998   2.147       .  S
Mg991       O999   2.156       .  S
Mg991       O992   2.310       .  S
Mg991       O993   2.307       .  S
Mg991      O1020   2.275       .  S
O993        C997   1.271       .  A
O994      Mg1001   2.285       .  S
O995       C1014   1.269       .  A
O996       C1016   1.275       .  A
O996      Mg1012   2.302       .  S
O998      Mg1012   2.156       .  S
O998       C1009   1.236       .  S
O999      Mg1018   2.153       .  S
O1000     Mg1012   2.301       .  S
Mg1001     O1017   2.264       .  S
O1002     Mg1018   2.272       .  S
H1003      C1008   1.081       .  S
O1004     Mg1012   2.139       .  S
O1004      C1007   1.235       .  S
H1005      C1007   1.081       .  S
H1006      C1009   1.081       .  S
O1011     Mg1018   2.301       .  S
C1014      C1655   1.479       .  S
C1014      O1019   1.276       .  A
O1015      C1016   1.274       .  A
C1016      C1275   1.483       .  S
C1021      N1022   1.363       .  A
C1021      N1026   1.368       .  A
C1021      C1082   1.496       .  S
N1022      C1023   1.356       .  A
C1023      N1024   1.353       .  A
C1023      C1835   1.486       .  S
N1024      C1025   1.354       .  A
C1025      N1026   1.364       .  A
C1025      C1092   1.481       .  S
C1027      N1028   1.364       .  A
C1027      N1032   1.360       .  A
C1027      C1105   1.475       .  S
N1028      C1029   1.362       .  A
C1029      N1030   1.357       .  A
C1029      C1095   1.483       .  S
N1030      C1031   1.356       .  A
C1031      N1032   1.357       .  A
C1031      C1875   1.484       .  S
O1033     Mg1035   2.157       .  S
O1033     Mg1041   2.163       .  S
O1033      C1068   1.237       .  S
C1034      H1073   1.081       .  S
C1034      O1047   1.236       .  S
C1034      O1071   1.271       .  A
Mg1035     O1064   2.164       .  S
Mg1035     O1079   2.305       .  S
Mg1035     O1075   2.288       .  S
Mg1035     O1046   2.294       .  S
O1036     Mg1078   2.154       .  S
O1036     Mg1061   2.139       .  S
O1036      C1057   1.235       .  S
O1037      C1068   1.271       .  A
O1037     Mg1061   2.305       .  S
C1038      C1502   1.489       .  S
C1038      O1040   1.274       .  A
C1038      O1052   1.272       .  A
O1039      C1067   1.269       .  A
O1039     Mg1041   2.296       .  S
O1040     Mg1072   2.267       .  S
Mg1041     O1047   2.149       .  S
Mg1041     O1055   2.262       .  S
Mg1041     O1043   2.306       .  S
C1042      C1395   1.484       .  S
C1042      O1080   1.272       .  A
C1042      O1048   1.276       .  A
O1043      C1050   1.275       .  A
H1044      C1057   1.081       .  S
C1045      H1070   1.081       .  S
C1045      O1059   1.235       .  S
C1045      O1060   1.269       .  A
O1046      C1069   1.268       .  A
O1047     Mg1061   2.150       .  S
O1048     Mg1078   2.309       .  S
C1049      C1442   1.480       .  S
C1049      O1062   1.272       .  A
C1049      O1054   1.275       .  A
C1050      C1425   1.479       .  S
C1050      O1077   1.270       .  A
Mg1051     O1058   2.146       .  S
Mg1051     O1059   2.156       .  S
Mg1051     O1052   2.291       .  S
Mg1051     O1053   2.292       .  S
Mg1051     O1080   2.266       .  S
O1053      C1057   1.269       .  A
O1054     Mg1061   2.304       .  S
O1055      C1074   1.273       .  A
O1056      C1076   1.275       .  A
O1056     Mg1072   2.298       .  S
O1058     Mg1072   2.159       .  S
O1058      C1069   1.235       .  S
O1059     Mg1078   2.139       .  S
O1060     Mg1072   2.293       .  S
Mg1061     O1077   2.260       .  S
O1062     Mg1078   2.265       .  S
H1063      C1068   1.081       .  S
O1064     Mg1072   2.146       .  S
O1064      C1067   1.235       .  S
H1065      C1067   1.081       .  S
H1066      C1069   1.081       .  S
O1071     Mg1078   2.302       .  S
C1074      C1475   1.492       .  S
C1074      O1079   1.274       .  A
O1075      C1076   1.275       .  A
C1076      C1085   1.484       .  S
C1081      C1082   1.411       .  A
C1081      C1086   1.400       .  A
C1081      H1088   1.081       .  S
C1082      C1083   1.415       .  A
C1083      C1084   1.403       .  A
C1083     Br1090   1.921       .  S
C1084      C1085   1.407       .  A
C1084      H1089   1.084       .  S
C1085      C1086   1.406       .  A
C1086     Br1087   1.920       .  S
C1091      C1092   1.405       .  A
C1091      C1096   1.409       .  A
C1091      H1098   1.083       .  S
C1092      C1093   1.410       .  A
C1093      C1094   1.396       .  A
C1093     Br1100   1.921       .  S
C1094      C1095   1.402       .  A
C1094      H1099   1.084       .  S
C1095      C1096   1.413       .  A
C1096     Br1097   1.918       .  S
C1101      C1102   1.404       .  A
C1101      C1106   1.400       .  A
C1101      H1108   1.083       .  S
C1102      C1103   1.415       .  A
C1103      C1104   1.401       .  A
C1103     Br1110   1.922       .  S
C1104      C1105   1.401       .  A
C1104      H1109   1.084       .  S
C1105      C1106   1.409       .  A
C1106     Br1107   1.919       .  S
C1111      C1112   1.409       .  A
C1111      C1116   1.396       .  A
C1111      H1118   1.083       .  S
C1112      C1113   1.415       .  A
C1113      C1114   1.400       .  A
C1113     Br1120   1.922       .  S
C1114      C1115   1.404       .  A
C1114      H1119   1.084       .  S
C1115      C1116   1.405       .  A
C1116     Br1117   1.920       .  S
C1121      C1122   1.401       .  A
C1121      C1126   1.394       .  A
C1121      H1128   1.084       .  S
C1122      C1123   1.408       .  A
C1123      C1124   1.403       .  A
C1123     Br1130   1.918       .  S
C1124      C1125   1.405       .  A
C1124      H1129   1.083       .  S
C1125      C1126   1.408       .  A
C1126     Br1127   1.920       .  S
C1131      C1132   1.407       .  A
C1131      C1136   1.400       .  A
C1131      H1138   1.083       .  S
C1132      C1133   1.412       .  A
C1133      C1134   1.397       .  A
C1133     Br1140   1.922       .  S
C1134      C1135   1.405       .  A
C1134      H1139   1.084       .  S
C1135      C1136   1.409       .  A
C1136     Br1137   1.920       .  S
C1141      C1142   1.411       .  A
C1141      C1146   1.398       .  A
C1141      H1148   1.083       .  S
C1142      C1143   1.419       .  A
C1143      C1144   1.400       .  A
C1143     Br1150   1.923       .  S
C1144      C1145   1.401       .  A
C1144      H1149   1.084       .  S
C1145      C1146   1.404       .  A
C1146     Br1147   1.920       .  S
C1151      C1152   1.400       .  A
C1151      C1156   1.395       .  A
C1151      H1158   1.084       .  S
C1152      C1153   1.411       .  A
C1153      C1154   1.394       .  A
C1153     Br1160   1.921       .  S
C1154      C1155   1.401       .  A
C1154      H1159   1.084       .  S
C1155      C1156   1.415       .  A
C1156     Br1157   1.923       .  S
C1161      C1162   1.400       .  A
C1161      C1166   1.394       .  A
C1161      H1168   1.084       .  S
C1162      C1163   1.408       .  A
C1163      C1164   1.403       .  A
C1163     Br1170   1.918       .  S
C1164      C1165   1.404       .  A
C1164      H1169   1.083       .  S
C1165      C1166   1.408       .  A
C1166     Br1167   1.920       .  S
C1171      C1172   1.406       .  A
C1171      C1176   1.400       .  A
C1171      H1178   1.083       .  S
C1172      C1173   1.419       .  A
C1173      C1174   1.397       .  A
C1173     Br1180   1.923       .  S
C1174      C1175   1.399       .  A
C1174      H1179   1.084       .  S
C1175      C1176   1.411       .  A
C1176     Br1177   1.921       .  S
C1181      C1182   1.406       .  A
C1181      C1186   1.400       .  A
C1181      H1188   1.081       .  S
C1182      C1183   1.412       .  A
C1183      C1184   1.403       .  A
C1183     Br1190   1.921       .  S
C1184      C1185   1.408       .  A
C1184      H1189   1.083       .  S
C1185      C1186   1.411       .  A
C1186     Br1187   1.920       .  S
C1191      C1192   1.403       .  A
C1191      C1196   1.395       .  A
C1191      H1198   1.084       .  S
C1192      C1193   1.412       .  A
C1193      C1194   1.406       .  A
C1193     Br1200   1.918       .  S
C1194      C1195   1.405       .  A
C1194      H1199   1.083       .  S
C1195      C1196   1.410       .  A
C1196     Br1197   1.922       .  S
C1201      C1202   1.398       .  A
C1201      C1206   1.398       .  A
C1201      H1208   1.084       .  S
C1202      C1203   1.407       .  A
C1203      C1204   1.400       .  A
C1203     Br1210   1.919       .  S
C1204      C1205   1.406       .  A
C1204      H1209   1.083       .  S
C1205      C1206   1.416       .  A
C1206     Br1207   1.922       .  S
C1211      C1212   1.401       .  A
C1211      C1216   1.395       .  A
C1211      H1218   1.084       .  S
C1212      C1213   1.408       .  A
C1213      C1214   1.398       .  A
C1213     Br1220   1.920       .  S
C1214      C1215   1.405       .  A
C1214      H1219   1.084       .  S
C1215      C1216   1.410       .  A
C1216     Br1217   1.921       .  S
C1221      C1222   1.404       .  A
C1221      C1226   1.403       .  A
C1221      H1228   1.083       .  S
C1222      C1223   1.407       .  A
C1223      C1224   1.395       .  A
C1223     Br1230   1.921       .  S
C1224      C1225   1.404       .  A
C1224      H1229   1.084       .  S
C1225      C1226   1.411       .  A
C1226     Br1227   1.919       .  S
C1231      C1232   1.403       .  A
C1231      C1236   1.398       .  A
C1231      H1238   1.084       .  S
C1232      C1233   1.406       .  A
C1233      C1234   1.396       .  A
C1233     Br1240   1.920       .  S
C1234      C1235   1.405       .  A
C1234      H1239   1.084       .  S
C1235      C1236   1.410       .  A
C1236     Br1237   1.920       .  S
C1241      C1242   1.403       .  A
C1241      C1246   1.399       .  A
C1241      H1248   1.083       .  S
C1242      C1243   1.411       .  A
C1243      C1244   1.397       .  A
C1243     Br1250   1.921       .  S
C1244      C1245   1.402       .  A
C1244      H1249   1.084       .  S
C1245      C1246   1.410       .  A
C1246     Br1247   1.920       .  S
C1251      C1252   1.405       .  A
C1251      C1256   1.405       .  A
C1251      H1258   1.083       .  S
C1252      C1253   1.407       .  A
C1253      C1254   1.394       .  A
C1253     Br1260   1.920       .  S
C1254      C1255   1.402       .  A
C1254      H1259   1.083       .  S
C1255      C1256   1.410       .  A
C1256     Br1257   1.917       .  S
C1261      C1262   1.407       .  A
C1261      C1266   1.397       .  A
C1261      H1268   1.084       .  S
C1262      C1263   1.412       .  A
C1263      C1264   1.400       .  A
C1263     Br1270   1.921       .  S
C1264      C1265   1.406       .  A
C1264      H1269   1.084       .  S
C1265      C1266   1.410       .  A
C1266     Br1267   1.921       .  S
C1271      C1272   1.402       .  A
C1271      C1276   1.401       .  A
C1271      H1278   1.084       .  S
C1272      C1273   1.405       .  A
C1273      C1274   1.399       .  A
C1273     Br1280   1.919       .  S
C1274      C1275   1.407       .  A
C1274      H1279   1.083       .  S
C1275      C1276   1.414       .  A
C1276     Br1277   1.921       .  S
C1281      C1282   1.403       .  A
C1281      C1286   1.397       .  A
C1281      H1288   1.084       .  S
C1282      C1283   1.410       .  A
C1283      C1284   1.405       .  A
C1283     Br1290   1.918       .  S
C1284      C1285   1.404       .  A
C1284      H1289   1.083       .  S
C1285      C1286   1.407       .  A
C1286     Br1287   1.920       .  S
C1291      C1292   1.402       .  A
C1291      C1296   1.398       .  A
C1291      H1298   1.084       .  S
C1292      C1293   1.414       .  A
C1293      C1294   1.400       .  A
C1293     Br1300   1.921       .  S
C1294      C1295   1.401       .  A
C1294      H1299   1.084       .  S
C1295      C1296   1.412       .  A
C1296     Br1297   1.920       .  S
C1301      C1302   1.400       .  A
C1301      C1306   1.400       .  A
C1301      H1308   1.084       .  S
C1302      C1303   1.411       .  A
C1303      C1304   1.399       .  A
C1303     Br1310   1.921       .  S
C1304      C1305   1.406       .  A
C1304      H1309   1.083       .  S
C1305      C1306   1.420       .  A
C1306     Br1307   1.923       .  S
C1311      C1312   1.406       .  A
C1311      C1316   1.407       .  A
C1311      H1318   1.083       .  S
C1312      C1313   1.410       .  A
C1313      C1314   1.397       .  A
C1313     Br1320   1.921       .  S
C1314      C1315   1.404       .  A
C1314      H1319   1.084       .  S
C1315      C1316   1.413       .  A
C1316     Br1317   1.918       .  S
C1321      C1322   1.407       .  A
C1321      C1326   1.401       .  A
C1321      H1328   1.084       .  S
C1322      C1323   1.409       .  A
C1323      C1324   1.399       .  A
C1323     Br1330   1.920       .  S
C1324      C1325   1.410       .  A
C1324      H1329   1.083       .  S
C1325      C1326   1.413       .  A
C1326     Br1327   1.919       .  S
C1331      C1332   1.401       .  A
C1331      C1336   1.403       .  A
C1331      H1338   1.084       .  S
C1332      C1333   1.409       .  A
C1333      C1334   1.396       .  A
C1333     Br1340   1.921       .  S
C1334      C1335   1.405       .  A
C1334      H1339   1.083       .  S
C1335      C1336   1.417       .  A
C1336     Br1337   1.922       .  S
C1341      C1342   1.407       .  A
C1341      C1346   1.408       .  A
C1341      H1348   1.083       .  S
C1342      C1343   1.412       .  A
C1343      C1344   1.395       .  A
C1343     Br1350   1.923       .  S
C1344      C1345   1.405       .  A
C1344      H1349   1.084       .  S
C1345      C1346   1.413       .  A
C1346     Br1347   1.917       .  S
C1351      C1352   1.409       .  A
C1351      C1356   1.396       .  A
C1351      H1358   1.083       .  S
C1352      C1353   1.419       .  A
C1353      C1354   1.397       .  A
C1353     Br1360   1.924       .  S
C1354      C1355   1.397       .  A
C1354      H1359   1.084       .  S
C1355      C1356   1.402       .  A
C1356     Br1357   1.919       .  S
C1361      C1362   1.399       .  A
C1361      C1366   1.395       .  A
C1361      H1368   1.084       .  S
C1362      C1363   1.408       .  A
C1363      C1364   1.396       .  A
C1363     Br1370   1.920       .  S
C1364      C1365   1.403       .  A
C1364      H1369   1.084       .  S
C1365      C1366   1.412       .  A
C1366     Br1367   1.920       .  S
C1371      C1372   1.401       .  A
C1371      C1376   1.395       .  A
C1371      H1378   1.084       .  S
C1372      C1373   1.410       .  A
C1373      C1374   1.402       .  A
C1373     Br1380   1.920       .  S
C1374      C1375   1.403       .  A
C1374      H1379   1.084       .  S
C1375      C1376   1.407       .  A
C1376     Br1377   1.919       .  S
C1381      C1382   1.401       .  A
C1381      C1386   1.402       .  A
C1381      H1388   1.084       .  S
C1382      C1383   1.408       .  A
C1383      C1384   1.400       .  A
C1383     Br1390   1.919       .  S
C1384      C1385   1.405       .  A
C1384      H1389   1.083       .  S
C1385      C1386   1.417       .  A
C1386     Br1387   1.922       .  S
C1391      C1392   1.408       .  A
C1391      C1396   1.397       .  A
C1391      H1398   1.083       .  S
C1392      C1393   1.414       .  A
C1393      C1394   1.403       .  A
C1393     Br1400   1.921       .  S
C1394      C1395   1.407       .  A
C1394      H1399   1.083       .  S
C1395      C1396   1.410       .  A
C1396     Br1397   1.922       .  S
C1401      C1402   1.407       .  A
C1401      C1406   1.409       .  A
C1401      H1408   1.083       .  S
C1402      C1403   1.411       .  A
C1403      C1404   1.393       .  A
C1403     Br1410   1.924       .  S
C1404      C1405   1.406       .  A
C1404      H1409   1.084       .  S
C1405      C1406   1.414       .  A
C1406     Br1407   1.918       .  S
C1411      C1412   1.396       .  A
C1411      C1416   1.396       .  A
C1411      H1418   1.084       .  S
C1412      C1413   1.405       .  A
C1413      C1414   1.398       .  A
C1413     Br1420   1.919       .  S
C1414      C1415   1.406       .  A
C1414      H1419   1.083       .  S
C1415      C1416   1.417       .  A
C1416     Br1417   1.922       .  S
C1421      C1422   1.400       .  A
C1421      C1426   1.401       .  A
C1421      H1428   1.084       .  S
C1422      C1423   1.407       .  A
C1423      C1424   1.398       .  A
C1423     Br1430   1.920       .  S
C1424      C1425   1.404       .  A
C1424      H1429   1.084       .  S
C1425      C1426   1.415       .  A
C1426     Br1427   1.921       .  S
C1431      C1432   1.404       .  A
C1431      C1436   1.404       .  A
C1431      H1438   1.083       .  S
C1432      C1433   1.408       .  A
C1433      C1434   1.394       .  A
C1433     Br1440   1.921       .  S
C1434      C1435   1.402       .  A
C1434      H1439   1.084       .  S
C1435      C1436   1.410       .  A
C1436     Br1437   1.919       .  S
C1441      C1442   1.405       .  A
C1441      C1446   1.400       .  A
C1441      H1448   1.084       .  S
C1442      C1443   1.414       .  A
C1443      C1444   1.400       .  A
C1443     Br1450   1.922       .  S
C1444      C1445   1.402       .  A
C1444      H1449   1.084       .  S
C1445      C1446   1.410       .  A
C1446     Br1447   1.919       .  S
C1451      C1452   1.403       .  A
C1451      C1456   1.405       .  A
C1451      H1458   1.083       .  S
C1452      C1453   1.413       .  A
C1453      C1454   1.399       .  A
C1453     Br1460   1.921       .  S
C1454      C1455   1.405       .  A
C1454      H1459   1.083       .  S
C1455      C1456   1.420       .  A
C1456     Br1457   1.921       .  S
C1461      C1462   1.405       .  A
C1461      C1466   1.397   1_556  A
C1461      H1468   1.084       .  S
C1462      C1463   1.412       .  A
C1463      C1464   1.408   1_556  A
C1463     Br1470   1.917       .  S
C1464      C1465   1.407       .  A
C1464      H1469   1.083       .  S
C1465      C1466   1.409       .  A
C1466     Br1467   1.921       .  S
C1471      C1472   1.398       .  A
C1471      C1476   1.401       .  A
C1471      H1478   1.084       .  S
C1472      C1473   1.403       .  A
C1473      C1474   1.398       .  A
C1473     Br1480   1.920       .  S
C1474      C1475   1.411       .  A
C1474      H1479   1.083       .  S
C1475      C1476   1.420       .  A
C1476     Br1477   1.923       .  S
C1481      C1482   1.405       .  A
C1481      C1486   1.400       .  A
C1481      H1488   1.083       .  S
C1482      C1483   1.411       .  A
C1483      C1484   1.399       .  A
C1483     Br1490   1.921       .  S
C1484      C1485   1.406       .  A
C1484      H1489   1.083       .  S
C1485      C1486   1.414       .  A
C1486     Br1487   1.922       .  S
C1491      C1492   1.405       .  A
C1491      C1496   1.406   1_655  A
C1491      H1498   1.083       .  S
C1492      C1493   1.409       .  A
C1493      C1494   1.394   1_655  A
C1493     Br1500   1.921       .  S
C1494      C1495   1.402       .  A
C1494      H1499   1.084       .  S
C1495      C1496   1.412       .  A
C1496     Br1497   1.918       .  S
C1501      C1502   1.407       .  A
C1501      C1506   1.397       .  A
C1501      H1508   1.083       .  S
C1502      C1503   1.421       .  A
C1503      C1504   1.400       .  A
C1503     Br1510   1.923       .  S
C1504      C1505   1.399       .  A
C1504      H1509   1.084       .  S
C1505      C1506   1.408       .  A
C1506     Br1507   1.921       .  S
C1511      C1512   1.403       .  A
C1511      C1516   1.400       .  A
C1511      H1518   1.084       .  S
C1512      C1513   1.416       .  A
C1513      C1514   1.401       .  A
C1513     Br1520   1.921       .  S
C1514      C1515   1.402       .  A
C1514      H1519   1.084       .  S
C1515      C1516   1.414       .  A
C1516     Br1517   1.922       .  S
C1521      C1522   1.403       .  A
C1521      C1526   1.394       .  A
C1521      H1528   1.084       .  S
C1522      C1523   1.411       .  A
C1523      C1524   1.407       .  A
C1523     Br1530   1.917       .  S
C1524      C1525   1.406   1_565  A
C1524      H1529   1.083   1_565  S
C1525      C1526   1.409   1_545  A
C1526     Br1527   1.922   1_565  S
C1531      C1532   1.407       .  A
C1531      C1536   1.399       .  A
C1531      H1538   1.083       .  S
C1532      C1533   1.419       .  A
C1533      C1534   1.403       .  A
C1533     Br1540   1.922       .  S
C1534      C1535   1.401       .  A
C1534      H1539   1.084       .  S
C1535      C1536   1.410       .  A
C1536     Br1537   1.921       .  S
C1541      C1542   1.409       .  A
C1541      C1546   1.399       .  A
C1541      H1548   1.084       .  S
C1542      C1543   1.412       .  A
C1543      C1544   1.404       .  A
C1543     Br1550   1.919       .  S
C1544      C1545   1.408       .  A
C1544      H1549   1.084       .  S
C1545      C1546   1.406       .  A
C1546     Br1547   1.919       .  S
C1551      C1552   1.407       .  A
C1551      C1556   1.409   1_556  A
C1551      H1558   1.083       .  S
C1552      C1553   1.414       .  A
C1553      C1554   1.397   1_556  A
C1553     Br1560   1.922       .  S
C1554      C1555   1.401       .  A
C1554      H1559   1.084       .  S
C1555      C1556   1.412       .  A
C1556     Br1557   1.918       .  S
C1561      C1562   1.402       .  A
C1561      C1566   1.399       .  A
C1561      H1568   1.084       .  S
C1562      C1563   1.410       .  A
C1563      C1564   1.398       .  A
C1563     Br1570   1.920       .  S
C1564      C1565   1.402       .  A
C1564      H1569   1.084       .  S
C1565      C1566   1.410       .  A
C1566     Br1567   1.920       .  S
C1571      C1572   1.405       .  A
C1571      C1576   1.399       .  A
C1571      H1578   1.083       .  S
C1572      C1573   1.408       .  A
C1573      C1574   1.403       .  A
C1573     Br1580   1.919       .  S
C1574      C1575   1.409       .  A
C1574      H1579   1.083       .  S
C1575      C1576   1.413       .  A
C1576     Br1577   1.921       .  S
C1581      C1582   1.404       .  A
C1581      C1586   1.407   1_556  A
C1581      H1588   1.083       .  S
C1582      C1583   1.411       .  A
C1583      C1584   1.394   1_556  A
C1583     Br1590   1.922       .  S
C1584      C1585   1.400       .  A
C1584      H1589   1.084       .  S
C1585      C1586   1.413       .  A
C1586     Br1587   1.918       .  S
C1591      C1592   1.403       .  A
C1591      C1596   1.399       .  A
C1591      H1598   1.083       .  S
C1592      C1593   1.414       .  A
C1593      C1594   1.398       .  A
C1593     Br1600   1.921       .  S
C1594      C1595   1.401       .  A
C1594      H1599   1.084       .  S
C1595      C1596   1.412       .  A
C1596     Br1597   1.921       .  S
C1601      C1602   1.408       .  A
C1601      C1606   1.398       .  A
C1601      H1608   1.084       .  S
C1602      C1603   1.410       .  A
C1603      C1604   1.399       .  A
C1603     Br1610   1.920       .  S
C1604      C1605   1.406       .  A
C1604      H1609   1.083       .  S
C1605      C1606   1.408       .  A
C1606     Br1607   1.921       .  S
C1611      C1612   1.404       .  A
C1611      C1616   1.404       .  A
C1611      H1618   1.083       .  S
C1612      C1613   1.409       .  A
C1613      C1614   1.395       .  A
C1613     Br1620   1.921       .  S
C1614      C1615   1.402   1_565  A
C1614      H1619   1.084   1_565  S
C1615      C1616   1.410   1_545  A
C1616     Br1617   1.918   1_565  S
C1621      C1622   1.402       .  A
C1621      C1626   1.400       .  A
C1621      H1628   1.084       .  S
C1622      C1623   1.412       .  A
C1623      C1624   1.403       .  A
C1623     Br1630   1.919       .  S
C1624      C1625   1.405       .  A
C1624      H1629   1.083       .  S
C1625      C1626   1.414       .  A
C1626     Br1627   1.922       .  S
C1631      C1632   1.413       .  A
C1631      C1636   1.398       .  A
C1631      H1638   1.083       .  S
C1632      C1633   1.418       .  A
C1633      C1634   1.401       .  A
C1633     Br1640   1.921       .  S
C1634      C1635   1.402       .  A
C1634      H1639   1.084       .  S
C1635      C1636   1.404       .  A
C1636     Br1637   1.920       .  S
C1641      C1642   1.403       .  A
C1641      C1646   1.395   1_655  A
C1641      H1648   1.084       .  S
C1642      C1643   1.413       .  A
C1643      C1644   1.407   1_655  A
C1643     Br1650   1.918       .  S
C1644      C1645   1.405       .  A
C1644      H1649   1.083       .  S
C1645      C1646   1.410       .  A
C1646     Br1647   1.921       .  S
C1651      C1652   1.403       .  A
C1651      C1656   1.395       .  A
C1651      H1658   1.083       .  S
C1652      C1653   1.409       .  A
C1653      C1654   1.400       .  A
C1653     Br1660   1.920       .  S
C1654      C1655   1.407       .  A
C1654      H1659   1.083       .  S
C1655      C1656   1.413       .  A
C1656     Br1657   1.923       .  S
C1661      C1662   1.400       .  A
C1661      C1666   1.397       .  A
C1661      H1668   1.084       .  S
C1662      C1663   1.413       .  A
C1663      C1664   1.395       .  A
C1663     Br1670   1.922       .  S
C1664      C1665   1.402       .  A
C1664      H1669   1.084       .  S
C1665      C1666   1.416       .  A
C1666     Br1667   1.919       .  S
C1671      C1672   1.401       .  A
C1671      C1676   1.391       .  A
C1671      H1678   1.084       .  S
C1672      C1673   1.412       .  A
C1673      C1674   1.406       .  A
C1673     Br1680   1.918       .  S
C1674      C1675   1.406   1_565  A
C1674      H1679   1.083   1_565  S
C1675      C1676   1.411   1_545  A
C1676     Br1677   1.923   1_565  S
C1681      C1682   1.406       .  A
C1681      C1686   1.397       .  A
C1681      H1688   1.083       .  S
C1682      C1683   1.411       .  A
C1683      C1684   1.402       .  A
C1683     Br1690   1.919       .  S
C1684      C1685   1.404       .  A
C1684      H1689   1.084       .  S
C1685      C1686   1.406       .  A
C1686     Br1687   1.919       .  S
C1691      C1692   1.400       .  A
C1691      C1696   1.398       .  A
C1691      H1698   1.084       .  S
C1692      C1693   1.413       .  A
C1693      C1694   1.399       .  A
C1693     Br1700   1.921       .  S
C1694      C1695   1.404       .  A
C1694      H1699   1.083       .  S
C1695      C1696   1.419       .  A
C1696     Br1697   1.923       .  S
C1701      C1702   1.407       .  A
C1701      C1706   1.407   1_655  A
C1701      H1708   1.083       .  S
C1702      C1703   1.413       .  A
C1703      C1704   1.394   1_655  A
C1703     Br1710   1.924       .  S
C1704      C1705   1.403       .  A
C1704      H1709   1.084       .  S
C1705      C1706   1.412       .  A
C1706     Br1707   1.918       .  S
C1711      C1712   1.400       .  A
C1711      C1716   1.401       .  A
C1711      H1718   1.084       .  S
C1712      C1713   1.409       .  A
C1713      C1714   1.399       .  A
C1713     Br1720   1.919       .  S
C1714      C1715   1.404       .  A
C1714      H1719   1.083       .  S
C1715      C1716   1.416       .  A
C1716     Br1717   1.922       .  S
C1721      C1722   1.408       .  A
C1721      C1726   1.396       .  A
C1721      H1728   1.084       .  S
C1722      C1723   1.409       .  A
C1723      C1724   1.401       .  A
C1723     Br1730   1.918       .  S
C1724      C1725   1.406       .  A
C1724      H1729   1.084       .  S
C1725      C1726   1.406       .  A
C1726     Br1727   1.921       .  S
C1731      C1732   1.404       .  A
C1731      C1736   1.408   1_556  A
C1731      H1738   1.083       .  S
C1732      C1733   1.410       .  A
C1733      C1734   1.395   1_556  A
C1733     Br1740   1.923       .  S
C1734      C1735   1.404       .  A
C1734      H1739   1.084       .  S
C1735      C1736   1.416       .  A
C1736     Br1737   1.919       .  S
C1741      C1742   1.403       .  A
C1741      C1746   1.396       .  A
C1741      H1748   1.084       .  S
C1742      C1743   1.409       .  A
C1743      C1744   1.396       .  A
C1743     Br1750   1.921       .  S
C1744      C1745   1.405       .  A
C1744      H1749   1.083       .  S
C1745      C1746   1.414       .  A
C1746     Br1747   1.923       .  S
C1751      C1752   1.402       .  A
C1751      C1756   1.398       .  A
C1751      H1758   1.084       .  S
C1752      C1753   1.412       .  A
C1753      C1754   1.401       .  A
C1753     Br1760   1.920       .  S
C1754      C1755   1.402       .  A
C1754      H1759   1.083       .  S
C1755      C1756   1.411       .  A
C1756     Br1757   1.921       .  S
C1761      C1762   1.403       .  A
C1761      C1766   1.392   1_655  A
C1761      H1768   1.084       .  S
C1762      C1763   1.410       .  A
C1763      C1764   1.403   1_655  A
C1763     Br1770   1.918       .  S
C1764      C1765   1.404       .  A
C1764      H1769   1.083       .  S
C1765      C1766   1.406       .  A
C1766     Br1767   1.921       .  S
C1771      C1772   1.410       .  A
C1771      C1776   1.400       .  A
C1771      H1778   1.083       .  S
C1772      C1773   1.419       .  A
C1773      C1774   1.398       .  A
C1773     Br1780   1.923       .  S
C1774      C1775   1.401       .  A
C1774      H1779   1.084       .  S
C1775      C1776   1.407       .  A
C1776     Br1777   1.920       .  S
C1781      C1782   1.409       .  A
C1781      C1786   1.399       .  A
C1781      H1788   1.083       .  S
C1782      C1783   1.413       .  A
C1783      C1784   1.400       .  A
C1783     Br1790   1.921       .  S
C1784      C1785   1.406       .  A
C1784      H1789   1.084       .  S
C1785      C1786   1.407       .  A
C1786     Br1787   1.920       .  S
C1791      C1792   1.405       .  A
C1791      C1796   1.398       .  A
C1791      H1798   1.084       .  S
C1792      C1793   1.411       .  A
C1793      C1794   1.403       .  A
C1793     Br1800   1.918       .  S
C1794      C1795   1.403   1_565  A
C1794      H1799   1.083   1_565  S
C1795      C1796   1.407   1_545  A
C1796     Br1797   1.920   1_565  S
C1801      C1802   1.408       .  A
C1801      C1806   1.394       .  A
C1801      H1808   1.083       .  S
C1802      C1803   1.419       .  A
C1803      C1804   1.399       .  A
C1803     Br1810   1.918       .  S
C1804      C1805   1.397       .  A
C1804      H1809   1.084       .  S
C1805      C1806   1.405       .  A
C1806     Br1807   1.922       .  S
C1811      C1812   1.399       .  A
C1811      C1816   1.396       .  A
C1811      H1818   1.084       .  S
C1812      C1813   1.406       .  A
C1813      C1814   1.397       .  A
C1813     Br1820   1.919       .  S
C1814      C1815   1.409       .  A
C1814      H1819   1.083       .  S
C1815      C1816   1.419       .  A
C1816     Br1817   1.922       .  S
C1821      C1822   1.400       .  A
C1821      C1826   1.394       .  A
C1821      H1828   1.084       .  S
C1822      C1823   1.404       .  A
C1823      C1824   1.398       .  A
C1823     Br1830   1.917       .  S
C1824      C1825   1.407       .  A
C1824      H1829   1.083       .  S
C1825      C1826   1.414       .  A
C1826     Br1827   1.922       .  S
C1831      C1832   1.401       .  A
C1831      C1836   1.400       .  A
C1831      H1838   1.084       .  S
C1832      C1833   1.405       .  A
C1833      C1834   1.395       .  A
C1833     Br1840   1.920       .  S
C1834      C1835   1.409       .  A
C1834      H1839   1.082       .  S
C1835      C1836   1.416       .  A
C1836     Br1837   1.918       .  S
C1841      C1842   1.399       .  A
C1841      C1846   1.395       .  A
C1841      H1848   1.084       .  S
C1842      C1843   1.404       .  A
C1843      C1844   1.399       .  A
C1843     Br1850   1.917       .  S
C1844      C1845   1.408       .  A
C1844      H1849   1.083       .  S
C1845      C1846   1.415       .  A
C1846     Br1847   1.923       .  S
C1851      C1852   1.398       .  A
C1851      C1856   1.399       .  A
C1851      H1858   1.084       .  S
C1852      C1853   1.405       .  A
C1853      C1854   1.397       .  A
C1853     Br1860   1.920       .  S
C1854      C1855   1.407       .  A
C1854      H1859   1.083       .  S
C1855      C1856   1.419       .  A
C1856     Br1857   1.922       .  S
C1861      C1862   1.398       .  A
C1861      C1866   1.398       .  A
C1861      H1868   1.084       .  S
C1862      C1863   1.404       .  A
C1863      C1864   1.394       .  A
C1863     Br1870   1.920       .  S
C1864      C1865   1.406       .  A
C1864      H1869   1.083       .  S
C1865      C1866   1.419       .  A
C1866     Br1867   1.922       .  S
C1871      C1872   1.400       .  A
C1871      C1876   1.396       .  A
C1871      H1878   1.084       .  S
C1872      C1873   1.407       .  A
C1873      C1874   1.402       .  A
C1873     Br1880   1.918       .  S
C1874      C1875   1.408       .  A
C1874      H1879   1.083       .  S
C1875      C1876   1.415       .  A
C1876     Br1877   1.922       .  S
C1881      C1882   1.397       .  A
C1881      C1886   1.394       .  A
C1881      H1888   1.084       .  S
C1882      C1883   1.399       .  A
C1883      C1884   1.395       .  A
C1883     Br1890   1.917       .  S
C1884      C1885   1.412       .  A
C1884      H1889   1.083       .  S
C1885      C1886   1.422       .  A
C1886     Br1887   1.926       .  S
C1891      C1892   1.398       .  A
C1891      C1896   1.394       .  A
C1891      H1898   1.084       .  S
C1892      C1893   1.404       .  A
C1893      C1894   1.400       .  A
C1893     Br1900   1.917       .  S
C1894      C1895   1.410       .  A
C1894      H1899   1.083       .  S
C1895      C1896   1.416       .  A
C1896     Br1897   1.922       .  S
C1901      C1902   1.407       .  A
C1901      C1906   1.394       .  A
C1901      H1908   1.083       .  S
C1902      C1903   1.420       .  A
C1903      C1904   1.396       .  A
C1903     Br1910   1.923       .  S
C1904      C1905   1.397       .  A
C1904      H1909   1.084       .  S
C1905      C1906   1.403       .  A
C1906     Br1907   1.919       .  S
C1911      C1912   1.401       .  A
C1911      C1916   1.397       .  A
C1911      H1918   1.084       .  S
C1912      C1913   1.406       .  A
C1913      C1914   1.398       .  A
C1913     Br1920   1.918       .  S
C1914      C1915   1.405       .  A
C1914      H1919   1.083       .  S
C1915      C1916   1.412       .  A
C1916     Br1917   1.920       .  S
C1921      C1922   1.398       .  A
C1921      C1926   1.400       .  A
C1921      H1928   1.083       .  S
C1922      C1923   1.406       .  A
C1923      C1924   1.395       .  A
C1923     Br1930   1.920       .  S
C1924      C1925   1.406       .  A
C1924      H1929   1.083       .  S
C1925      C1926   1.421       .  A
C1926     Br1927   1.922       .  S
C1931      C1932   1.398       .  A
C1931      C1936   1.393       .  A
C1931      H1938   1.084       .  S
C1932      C1933   1.404       .  A
C1933      C1934   1.397       .  A
C1933     Br1940   1.917       .  S
C1934      C1935   1.407       .  A
C1934      H1939   1.083       .  S
C1935      C1936   1.415       .  A
C1936     Br1937   1.923       .  S
C1941      C1942   1.400       .  A
C1941      C1946   1.400       .  A
C1941      H1948   1.083       .  S
C1942      C1943   1.407       .  A
C1943      C1944   1.396       .  A
C1943     Br1950   1.920       .  S
C1944      C1945   1.405       .  A
C1944      H1949   1.083       .  S
C1945      C1946   1.417       .  A
C1946     Br1947   1.921       .  S
C1951      C1952   1.398       .  A
C1951      C1956   1.399       .  A
C1951      H1958   1.084       .  S
C1952      C1953   1.404       .  A
C1953      C1954   1.395       .  A
C1953     Br1960   1.919       .  S
C1954      C1955   1.408       .  A
C1954      H1959   1.083       .  S
C1955      C1956   1.420       .  A
C1956     Br1957   1.922       .  S
C1961      C1962   1.401       .  A
C1961      C1966   1.396       .  A
C1961      H1968   1.084       .  S
C1962      C1963   1.406       .  A
C1963      C1964   1.398       .  A
C1963     Br1970   1.918       .  S
C1964      C1965   1.405       .  A
C1964      H1969   1.083       .  S
C1965      C1966   1.411       .  A
C1966     Br1967   1.922       .  S
C1971      C1972   1.399       .  A
C1971      C1976   1.392       .  A
C1971      H1978   1.084       .  S
C1972      C1973   1.404       .  A
C1973      C1974   1.397       .  A
C1973     Br1980   1.918       .  S
C1974      C1975   1.407       .  A
C1974      H1979   1.083       .  S
C1975      C1976   1.412       .  A
C1976     Br1977   1.922       .  S
C1981      C1982   1.399       .  A
C1981      C1986   1.395       .  A
C1981      H1988   1.084       .  S
C1982      C1983   1.406       .  A
C1983      C1984   1.398       .  A
C1983     Br1990   1.918       .  S
C1984      C1985   1.406       .  A
C1984      H1989   1.083       .  S
C1985      C1986   1.413       .  A
C1986     Br1987   1.922       .  S
C1991      C1992   1.411       .  A
C1991      C1996   1.391       .  A
C1991      H1998   1.083       .  S
C1992      C1993   1.421       .  A
C1993      C1994   1.403       .  A
C1993     Br2000   1.921       .  S
C1994      C1995   1.400       .  A
C1994      H1999   1.083       .  S
C1995      C1996   1.402       .  A
C1996     Br1997   1.921       .  S
C2001      C2002   1.401       .  A
C2001      C2006   1.397       .  A
C2001      H2008   1.084       .  S
C2002      C2003   1.406       .  A
C2003      C2004   1.393       .  A
C2003     Br2010   1.921       .  S
C2004      C2005   1.405       .  A
C2004      H2009   1.084       .  S
C2005      C2006   1.412       .  A
C2006     Br2007   1.921       .  S
C2011      C2012   1.399       .  A
C2011      C2016   1.393       .  A
C2011      H2018   1.084       .  S
C2012      C2013   1.402       .  A
C2013      C2014   1.399       .  A
C2013     Br2020   1.917       .  S
C2014      C2015   1.410       .  A
C2014      H2019   1.083       .  S
C2015      C2016   1.414       .  A
C2016     Br2017   1.922       .  S
C2021      C2022   1.400       .  A
C2021      C2026   1.399       .  A
C2021      H2028   1.084       .  S
C2022      C2023   1.404       .  A
C2023      C2024   1.394       .  A
C2023     Br2030   1.920       .  S
C2024      C2025   1.407       .  A
C2024      H2029   1.083       .  S
C2025      C2026   1.416       .  A
C2026     Br2027   1.921       .  S
C2031      C2032   1.408       .  A
C2031      C2036   1.395       .  A
C2031      H2038   1.083       .  S
C2032      C2033   1.415       .  A
C2033      C2034   1.394       .  A
C2033     Br2040   1.923       .  S
C2034      C2035   1.399       .  A
C2034      H2039   1.084       .  S
C2035      C2036   1.402       .  A
C2036     Br2037   1.917       .  S
C2041      C2042   1.400       .  A
C2041      C2046   1.396       .  A
C2041      H2048   1.084       .  S
C2042      C2043   1.404       .  A
C2043      C2044   1.398       .  A
C2043     Br2050   1.917       .  S
C2044      C2045   1.408       .  A
C2044      H2049   1.083       .  S
C2045      C2046   1.416       .  A
C2046     Br2047   1.923       .  S
C2051      C2052   1.400       .  A
C2051      C2056   1.399       .  A
C2051      H2058   1.083       .  S
C2052      C2053   1.406       .  A
C2053      C2054   1.393       .  A
C2053     Br2060   1.921       .  S
C2054      C2055   1.406       .  A
C2054      H2059   1.084       .  S
C2055      C2056   1.414       .  A
C2056     Br2057   1.919       .  S
C2061      C2062   1.399       .  A
C2061      C2066   1.401       .  A
C2061      H2068   1.083       .  S
C2062      C2063   1.403       .  A
C2063      C2064   1.392       .  A
C2063     Br2070   1.920       .  S
C2064      C2065   1.408       .  A
C2064      H2069   1.083       .  S
C2065      C2066   1.420       .  A
C2066     Br2067   1.922       .  S
C2071      C2072   1.400       .  A
C2071      C2076   1.395       .  A
C2071      H2078   1.084       .  S
C2072      C2073   1.403       .  A
C2073      C2074   1.396       .  A
C2073     Br2080   1.918       .  S
C2074      C2075   1.407       .  A
C2074      H2079   1.083       .  S
C2075      C2076   1.413       .  A
C2076     Br2077   1.922       .  S
C2081      C2082   1.400       .  A
C2081      C2086   1.401       .  A
C2081      H2088   1.084       .  S
C2082      C2083   1.402       .  A
C2083      C2084   1.397       .  A
C2083     Br2090   1.919       .  S
C2084      C2085   1.411       .  A
C2084      H2089   1.083       .  S
C2085      C2086   1.421       .  A
C2086     Br2087   1.922       .  S
C2091      C2092   1.397       .  A
C2091      C2096   1.399       .  A
C2091      H2098   1.084       .  S
C2092      C2093   1.405       .  A
C2093      C2094   1.398       .  A
C2093     Br2100   1.920       .  S
C2094      C2095   1.410       .  A
C2094      H2099   1.083       .  S
C2095      C2096   1.424       .  A
C2096     Br2097   1.924       .  S
C2101      C2102   1.409       .  A
C2101      C2106   1.399       .  A
C2101      H2108   1.083       .  S
C2102      C2103   1.417       .  A
C2103      C2104   1.399       .  A
C2103     Br2110   1.921       .  S
C2104      C2105   1.401       .  A
C2104      H2109   1.084       .  S
C2105      C2106   1.408       .  A
C2106     Br2107   1.920       .  S
C2111      C2112   1.397       .  A
C2111      C2116   1.398       .  A
C2111      H2118   1.084       .  S
C2112      C2113   1.404       .  A
C2113      C2114   1.397       .  A
C2113     Br2120   1.919       .  S
C2114      C2115   1.410       .  A
C2114      H2119   1.083       .  S
C2115      C2116   1.422       .  A
C2116     Br2117   1.923       .  S
C2121      C2122   1.405       .  A
C2121      C2126   1.402       .  A
C2121      H2128   1.083       .  S
C2122      C2123   1.408       .  A
C2123      C2124   1.393       .  A
C2123     Br2130   1.919       .  S
C2124      C2125   1.404       .  A
C2124      H2129   1.082       .  S
C2125      C2126   1.413       .  A
C2126     Br2127   1.919       .  S
C2131      C2132   1.398       .  A
C2131      C2136   1.396       .  A
C2131      H2138   1.084       .  S
C2132      C2133   1.405       .  A
C2133      C2134   1.399       .  A
C2133     Br2140   1.918       .  S
C2134      C2135   1.408       .  A
C2134      H2139   1.083       .  S
C2135      C2136   1.418       .  A
C2136     Br2137   1.923       .  S
C2141      C2142   1.402       .  A
C2141      C2146   1.400       .  A
C2141      H2148   1.083       .  S
C2142      C2143   1.406       .  A
C2143      C2144   1.392       .  A
C2143     Br2150   1.918       .  S
C2144      C2145   1.403       .  A
C2144      H2149   1.084       .  S
C2145      C2146   1.413       .  A
C2146     Br2147   1.920       .  S
C2151      C2152   1.397       .  A
C2151      C2156   1.395       .  A
C2151      H2158   1.084       .  S
C2152      C2153   1.405       .  A
C2153      C2154   1.398       .  A
C2153     Br2160   1.918       .  S
C2154      C2155   1.408       .  A
C2154      H2159   1.083       .  S
C2155      C2156   1.422       .  A
C2156     Br2157   1.924       .  S
C2161      C2162   1.397       .  A
C2161      C2166   1.396       .  A
C2161      H2168   1.084       .  S
C2162      C2163   1.403       .  A
C2163      C2164   1.400       .  A
C2163     Br2170   1.917       .  S
C2164      C2165   1.411       .  A
C2164      H2169   1.082       .  S
C2165      C2166   1.425       .  A
C2166     Br2167   1.926       .  S
C2171      C2172   1.399       .  A
C2171      C2176   1.395       .  A
C2171      H2178   1.084       .  S
C2172      C2173   1.406       .  A
C2173      C2174   1.393       .  A
C2173     Br2180   1.920       .  S
C2174      C2175   1.404       .  A
C2174      H2179   1.084       .  S
C2175      C2176   1.414       .  A
C2176     Br2177   1.921       .  S
C2181      C2182   1.397       .  A
C2181      C2186   1.398       .  A
C2181      H2188   1.084       .  S
C2182      C2183   1.402       .  A
C2183      C2184   1.392       .  A
C2183     Br2190   1.920       .  S
C2184      C2185   1.410       .  A
C2184      H2189   1.083       .  S
C2185      C2186   1.422       .  A
C2186     Br2187   1.922       .  S
C2191      C2192   1.400       .  A
C2191      C2196   1.394       .  A
C2191      H2198   1.084       .  S
C2192      C2193   1.405       .  A
C2193      C2194   1.400       .  A
C2193     Br2200   1.917       .  S
C2194      C2195   1.406       .  A
C2194      H2199   1.083       .  S
C2195      C2196   1.413       .  A
C2196     Br2197   1.923       .  S
C2201      C2202   1.399       .  A
C2201      C2206   1.398       .  A
C2201      H2208   1.084       .  S
C2202      C2203   1.405       .  A
C2203      C2204   1.396       .  A
C2203     Br2210   1.920       .  S
C2204      C2205   1.409       .  A
C2204      H2209   1.083       .  S
C2205      C2206   1.418       .  A
C2206     Br2207   1.921       .  S
C2211      C2212   1.407       .  A
C2211      C2216   1.393       .  A
C2211      H2218   1.083       .  S
C2212      C2213   1.417       .  A
C2213      C2214   1.400       .  A
C2213     Br2220   1.920       .  S
C2214      C2215   1.400       .  A
C2214      H2219   1.083       .  S
C2215      C2216   1.405       .  A
C2216     Br2217   1.921       .  S
C2221      C2222   1.399       .  A
C2221      C2226   1.402       .  A
C2221      H2228   1.084       .  S
C2222      C2223   1.402       .  A
C2223      C2224   1.394       .  A
C2223     Br2230   1.921       .  S
C2224      C2225   1.412       .  A
C2224      H2229   1.083       .  S
C2225      C2226   1.422       .  A
C2226     Br2227   1.921       .  S
C2231      C2232   1.401       .  A
C2231      C2236   1.394       .  A
C2231      H2238   1.084       .  S
C2232      C2233   1.405       .  A
C2233      C2234   1.398       .  A
C2233     Br2240   1.918       .  S
C2234      C2235   1.407       .  A
C2234      H2239   1.083       .  S
C2235      C2236   1.411       .  A
C2236     Br2237   1.921       .  S
C2241      C2242   1.403       .  A
C2241      C2246   1.398       .  A
C2241      H2248   1.084       .  S
C2242      C2243   1.409       .  A
C2243      C2244   1.397       .  A
C2243     Br2250   1.919       .  S
C2244      C2245   1.403       .  A
C2244      H2249   1.084       .  S
C2245      C2246   1.411       .  A
C2246     Br2247   1.920       .  S
C2251      C2252   1.398       .  A
C2251      C2256   1.394       .  A
C2251      H2258   1.084       .  S
C2252      C2253   1.403       .  A
C2253      C2254   1.399       .  A
C2253     Br2260   1.918       .  S
C2254      C2255   1.411       .  A
C2254      H2259   1.082       .  S
C2255      C2256   1.419       .  A
C2256     Br2257   1.923       .  S
C2261      C2262   1.406       .  A
C2261      C2266   1.392       .  A
C2261      H2268   1.083       .  S
C2262      C2263   1.416       .  A
C2263      C2264   1.401       .  A
C2263     Br2270   1.920       .  S
C2264      C2265   1.401       .  A
C2264      H2269   1.083       .  S
C2265      C2266   1.404       .  A
C2266     Br2267   1.920       .  S
C2271      C2272   1.407       .  A
C2271      C2276   1.402       .  A
C2271      H2278   1.083       .  S
C2272      C2273   1.415       .  A
C2273      C2274   1.397       .  A
C2273     Br2280   1.922       .  S
C2274      C2275   1.401       .  A
C2274      H2279   1.084       .  S
C2275      C2276   1.407       .  A
C2276     Br2277   1.917       .  S
