geometry optimzed in LAMMPS
_audit_creation_date              2020-11-30 
_audit_creation_method            'lammps2cif' 
_symmetry_space_group_name_H-M    'P1' 
_symmetry_Int_Tables_number       1 
_symmetry_cell_setting            triclinic 
loop_ 
_symmetry_equiv_pos_as_xyz 
  x,y,z 
_cell_length_a                    21.671653233452872 
_cell_length_b                    24.73137189322441 
_cell_length_c                    45.51361355186783 
_cell_angle_alpha                 89.79056759390292 
_cell_angle_beta                  90.08122769666996 
_cell_angle_gamma                 89.75907581474658 
loop_ 
_atom_site_label 
_atom_site_type_symbol 
_atom_site_fract_x 
_atom_site_fract_y 
_atom_site_fract_z 
_atom_site_charge 
O1          O  0.82232374  0.38764315  0.29997930    -0.81330
O2          O  0.83891755  0.41042299  0.19691343    -0.81350
O3          O  0.83896189  0.29729167  0.27180194    -0.81360
O4          O  0.71651338  0.48793030  0.22290338    -0.81300
O5          O  0.88206247  0.35167232  0.24167043    -0.81420
O6          O  0.78713413  0.48368000  0.25935772    -0.81340
O7          O  0.74858862  0.42554687  0.17725693    -0.81330
O8          O  0.77307623  0.31475363  0.31721287    -0.81360
C9          C  0.81373648  0.35150068  0.32087701     1.08360
C10         C  0.80669597  0.43171134  0.17700629     1.08250
C11         C  0.88749983  0.31409030  0.25982511     1.08390
C12         C  0.75738980  0.51010152  0.23947363     1.08260
O13         O  0.66600884  0.46073887  0.26721578    -0.81330
O14         O  0.79065234  0.26591515  0.22696699    -0.81400
O15         O  0.67939716  0.37325912  0.29940655    -0.81340
O16         O  0.66848805  0.33970808  0.19758296    -0.81320
O17         O  0.75881997  0.32314627  0.17841924    -0.81370
O18         O  0.72976669  0.44737784  0.31353131    -0.81340
O19         O  0.62201991  0.40353839  0.23940459    -0.81300
O20         O  0.72019328  0.26981519  0.26318803    -0.81370
Co21       Co  0.74678711  0.41982074  0.27656532     1.51530
Co22       Co  0.81497819  0.34031711  0.21301202     1.51690
Co23       Co  0.75695445  0.33752170  0.27857510     1.51570
Co24       Co  0.69137632  0.41159685  0.21145490     1.51470
O25         O  0.75243637  0.37654464  0.23927325    -1.43260
C26         C  0.61697612  0.44272758  0.25636772     1.08290
C27         C  0.75127901  0.24305276  0.24387984     1.08380
C28         C  0.68533018  0.41452303  0.31756255     1.08320
C29         C  0.70047306  0.31850872  0.17756102     1.08290
O30         O  0.71545816  0.98934385  0.22995310    -0.81330
O31         O  0.83382772  0.79123017  0.27235522    -0.81350
O32         O  0.82071025  0.88024798  0.30272704    -0.81360
O33         O  0.84030501  0.90970536  0.19975908    -0.81300
O34         O  0.77040404  0.80694437  0.31809882    -0.81420
O35         O  0.74942785  0.93160046  0.18216657    -0.81340
O36         O  0.87973400  0.84628306  0.24361817    -0.81330
O37         O  0.78334316  0.98146411  0.26751304    -0.81360
C38         C  0.75428337  0.00974692  0.24824797     1.08360
C39         C  0.88300742  0.80739488  0.26099400     1.08250
C40         C  0.81164697  0.84272121  0.32273080     1.08390
C41         C  0.80791958  0.93438295  0.18097954     1.08260
O42         O  0.66660648  0.84498322  0.19852979    -0.81330
O43         O  0.67609002  0.86455007  0.30162934    -0.81400
O44         O  0.66371119  0.95482234  0.27305370    -0.81340
O45         O  0.78397732  0.76396643  0.22687514    -0.81320
O46         O  0.71426319  0.76803904  0.26372820    -0.81370
O47         O  0.62007102  0.90341470  0.24201971    -0.81340
O48         O  0.75663535  0.82750182  0.17940269    -0.81300
O49         O  0.72693594  0.93563088  0.31903631    -0.81370
Co50       Co  0.69056126  0.91459432  0.21523256     1.51530
Co51       Co  0.75376817  0.83264236  0.28013811     1.51690
Co52       Co  0.74460967  0.91389096  0.28099301     1.51570
Co53       Co  0.81233767  0.83929545  0.21464894     1.51470
O54         O  0.75078206  0.87569118  0.24190451    -1.43260
C55         C  0.69826130  0.82516788  0.17801094     1.08290
C56         C  0.68267363  0.90197480  0.32175862     1.08380
C57         C  0.61529334  0.94017789  0.26042065     1.08320
C58         C  0.74388977  0.74180092  0.24397120     1.08290
O59         O  0.21734300  0.24073100  0.22612492    -0.81330
O60         O  0.34250554  0.04802996  0.26918292    -0.81350
O61         O  0.32570025  0.13589099  0.29900417    -0.81360
O62         O  0.33488776  0.16694141  0.19897385    -0.81300
O63         O  0.27811022  0.06161106  0.31540666    -0.81420
O64         O  0.24600450  0.18101718  0.17827498    -0.81340
O65         O  0.38254484  0.10568866  0.24034841    -0.81330
O66         O  0.28901437  0.23289301  0.26202522    -0.81360
C67         C  0.25914887  0.26078562  0.24300304     1.08360
C68         C  0.39040451  0.06773002  0.25790255     1.07930
C69         C  0.31995292  0.09754031  0.31878683     1.08390
C70         C  0.30412667  0.18527788  0.17781512     1.08260
O71         O  0.16610863  0.09489058  0.19838732    -0.81330
O72         O  0.18302292  0.11910694  0.29999777    -0.81400
O73         O  0.16721488  0.21015758  0.27026630    -0.81340
O74         O  0.29348067  0.01751811  0.22429544    -0.81320
O75         O  0.22375371  0.01854830  0.26117804    -0.81370
O76         O  0.12265715  0.15521397  0.24148470    -0.81340
O77         O  0.25625017  0.07894716  0.17833609    -0.81300
O78         O  0.23399709  0.19220081  0.31522340    -0.81370
Co79       Co  0.19046789  0.16554666  0.21311585     1.51530
Co80       Co  0.25963401  0.08611887  0.27758870     1.51690
Co81       Co  0.24854209  0.16831044  0.27761340     1.51570
Co82       Co  0.31446895  0.09433958  0.21238208     1.51470
O83         O  0.25221918  0.12761602  0.23948650    -1.43260
C84         C  0.19765931  0.07620170  0.17765283     1.08290
C85         C  0.19045457  0.15849622  0.31918140     1.08380
C86         C  0.11793132  0.19315757  0.25916493     1.08320
C87         C  0.25461455  0.99348996  0.24112311     1.08290
O88         O  0.28903358  0.51535930  0.22732865    -0.81330
O89         O  0.15907448  0.70485909  0.26937480    -0.81350
O90         O  0.17840596  0.61782174  0.30059748    -0.81360
O91         O  0.16630861  0.58453641  0.20010639    -0.81300
O92         O  0.22368936  0.69399278  0.31561705    -0.81420
O93         O  0.25544631  0.57316103  0.17915722    -0.81340
O94         O  0.11746644  0.64647965  0.24152835    -0.81330
O95         O  0.21929761  0.51946692  0.26384057    -0.81360
C96         C  0.24957274  0.49270550  0.24451702     1.08360
C97         C  0.11074440  0.68474531  0.25893625     1.08250
C98         C  0.18186538  0.65827060  0.31925763     1.08390
C99         C  0.19733350  0.56705177  0.17886785     1.08260
O100        O  0.33195237  0.66220127  0.19848070    -0.81330
O101        O  0.32009674  0.63837065  0.30098852    -0.81400
O102        O  0.33885801  0.54715266  0.27165931    -0.81340
O103        O  0.20500754  0.73517216  0.22412248    -0.81320
O104        O  0.27608397  0.73574740  0.26051615    -0.81370
O105        O  0.37998975  0.60264411  0.24171722    -0.81340
O106        O  0.24145608  0.67424180  0.17837350    -0.81300
O107        O  0.27511417  0.56254664  0.31704395    -0.81370
Co108      Co  0.31162731  0.59073970  0.21371490     1.51530
Co109      Co  0.24225558  0.66837999  0.27809446     1.51690
Co110      Co  0.25663044  0.58608411  0.27916472     1.51570
Co111      Co  0.18515916  0.65777075  0.21310184     1.51470
O112        O  0.24928317  0.62599061  0.24047246    -1.43260
C113        C  0.29959776  0.68079859  0.17777293     1.08290
C114        C  0.31358118  0.60077489  0.32138947     1.08380
C115        C  0.38672079  0.56457198  0.25943281     1.08320
C116        C  0.24408773  0.76002216  0.24042528     1.08290
O117        O  0.47952782  0.18157903  0.06529692    -0.81330
O118        O  0.49628843  0.30940970  0.93085193    -0.81350
O119        O  0.46373057  0.35639245  0.01583603    -0.81360
O120        O  0.36905524  0.22172334  0.99152148    -0.81300
O121        O  0.53090502  0.36434248  0.97879252    -0.81420
O122        O  0.41468061  0.16632134  0.02022293    -0.81340
O123        O  0.40583112  0.28447367  0.94736341    -0.81330
O124        O  0.43037824  0.25638177  0.05091280    -0.81360
C125        C  0.43904709  0.21779606  0.07040021     1.08360
C126        C  0.43820410  0.30892099  0.92864617     1.08250
C127        C  0.49201286  0.38504852  0.99683949     1.08390
C128        C  0.36541175  0.18263915  0.00863247     1.08260
O129        O  0.53613238  0.14305258  0.01246010    -0.81330
O130        O  0.62767582  0.27881150  0.98869105    -0.81400
O131        O  0.52417703  0.31398934  0.06681881    -0.81340
O132        O  0.49100017  0.20324816  0.92743728    -0.81320
O133        O  0.58346927  0.22490651  0.94300081    -0.81370
O134        O  0.57216261  0.24017326  0.05051091    -0.81340
O135        O  0.46759712  0.13988565  0.97530383    -0.81300
O136        O  0.58760192  0.33063891  0.02093061    -0.81370
Co137      Co  0.49537719  0.20801374  0.02796977     1.51530
Co138      Co  0.55691813  0.29155911  0.96264445     1.51690
Co139      Co  0.50609819  0.29026025  0.02896417     1.51570
Co140      Co  0.43661620  0.21473026  0.96277251     1.51470
O141        O  0.49874269  0.25121843  0.98973612    -1.43260
C142        C  0.50640820  0.11683507  0.99286853     1.08290
C143        C  0.63459974  0.31539978  0.00699448     1.08380
C144        C  0.56429599  0.27692121  0.07103255     1.08320
C145        C  0.54887521  0.20453097  0.92380685     1.08290
O146        O  0.47793695  0.68634208  0.06743398    -0.81330
O147        O  0.50335223  0.80015696  0.92839471    -0.81350
O148        O  0.46108896  0.85779005  0.01179777    -0.81360
O149        O  0.37014236  0.72284538  0.99176928    -0.81300
O150        O  0.53055055  0.86294478  0.97511388    -0.81420
O151        O  0.41423573  0.66930651  0.02208452    -0.81340
O152        O  0.41372276  0.78235101  0.94774418    -0.81330
O153        O  0.42853866  0.76029264  0.05140005    -0.81360
C154        C  0.43707062  0.72281379  0.07165599     1.08360
C155        C  0.44508070  0.80267548  0.92724717     1.08250
C156        C  0.48896645  0.88455499  0.99161448     1.08390
C157        C  0.36539848  0.68556032  0.01006455     1.08260
O158        O  0.53496405  0.64469245  0.01508285    -0.81330
O159        O  0.62609396  0.77797314  0.99187169    -0.81400
O160        O  0.52096674  0.82154496  0.06547883    -0.81340
O161        O  0.49706953  0.69689870  0.93008939    -0.81320
O162        O  0.58716857  0.71743845  0.94834028    -0.81370
O163        O  0.57010680  0.74623253  0.05148943    -0.81340
O164        O  0.46584653  0.63777005  0.97807119    -0.81300
O165        O  0.58349419  0.83585235  0.01960170    -0.81370
Co166      Co  0.49446636  0.71084480  0.02960669     1.51530
Co167      Co  0.55932391  0.78731700  0.96317259     1.51690
Co168      Co  0.50376061  0.79404776  0.02838153     1.51570
Co169      Co  0.43917327  0.71252715  0.96398552     1.51470
O170        O  0.49916967  0.75064672  0.99065815    -1.43260
C171        C  0.50597449  0.61694587  0.99573363     1.08290
C172        C  0.63187884  0.81787313  0.00806116     1.08380
C173        C  0.56179681  0.78531276  0.07071536     1.08320
C174        C  0.55563009  0.69473662  0.92883185     1.08290
O175        O  0.96931678  0.93454290  0.06894543    -0.81330
O176        O  0.00909860  0.05130939  0.93055559    -0.81350
O177        O  0.96323407  0.10615067  0.01370294    -0.81360
O178        O  0.87502856  0.96791074  0.99022186    -0.81300
O179        O  0.03663727  0.11113659  0.97886651    -0.81420
O180        O  0.91489684  0.91233515  0.02047939    -0.81340
O181        O  0.91849230  0.02962371  0.94807670    -0.81330
O182        O  0.92288712  0.00779970  0.05004620    -0.81360
C183        C  0.92892290  0.97227394  0.07140611     1.08360
C184        C  0.95065789  0.05100109  0.92818350     1.08250
C185        C  0.99547111  0.13323173  0.99526570     1.08390
C186        C  0.86829536  0.92793724  0.00633708     1.08260
O187        O  0.03830976  0.89366493  0.01796423    -0.81330
O188        O  0.12808251  0.02560413  0.99597307    -0.81400
O189        O  0.01377979  0.06552655  0.06861935    -0.81340
O190        O  0.00442221  0.94737638  0.93047123    -0.81320
O191        O  0.09193723  0.96657410  0.95114591    -0.81370
O192        O  0.06509916  0.99199728  0.05417248    -0.81340
O193        O  0.97699205  0.88548208  0.97803074    -0.81300
O194        O  0.08422351  0.08151214  0.02445738    -0.81370
Co195      Co  0.99183517  0.95723715  0.03092812     1.51530
Co196      Co  0.06372213  0.03627708  0.96615989     1.51690
Co197      Co  0.00188678  0.04059221  0.03040586     1.51570
Co198      Co  0.94577557  0.95984013  0.96392871     1.51470
O199        O  0.00160711  0.99846098  0.99217876    -1.43260
C200        C  0.01593826  0.86587951  0.99687529     1.08290
C201        C  0.13327764  0.06452766  0.01303271     1.08380
C202        C  0.05650542  0.03064207  0.07338514     1.08320
C203        C  0.06271920  0.94618978  0.93019615     1.08290
O204        O  0.02154935  0.56958952  0.06521392    -0.81330
O205        O  0.00187549  0.44213873  0.93100301    -0.81350
O206        O  0.03231780  0.39300594  0.01662693    -0.81360
O207        O  0.13294853  0.52448423  0.99235932    -0.81300
O208        O  0.96504275  0.38679454  0.97894275    -0.81420
O209        O  0.08853460  0.58068414  0.02071077    -0.81340
O210        O  0.09261858  0.46346503  0.94855188    -0.81330
O211        O  0.06902989  0.49334821  0.05214278    -0.81360
C212        C  0.06095317  0.53262562  0.07117553     1.08360
C213        C  0.06008580  0.44140282  0.92917150     1.08250
C214        C  0.00311504  0.36545204  0.99732528     1.08390
C215        C  0.13760510  0.56289250  0.00978301     1.08260
O216        O  0.96833577  0.60743110  0.01058157    -0.81330
O217        O  0.87189372  0.47401259  0.98942175    -0.81400
O218        O  0.97220624  0.43988197  0.06782666    -0.81340
O219        O  0.01109528  0.54811593  0.92791852    -0.81320
O220        O  0.91763488  0.52886087  0.94332893    -0.81370
O221        O  0.92678997  0.51354329  0.04886594    -0.81340
O222        O  0.04078940  0.61074836  0.97544594    -0.81300
O223        O  0.91142469  0.42147773  0.02151103    -0.81370
Co224      Co  0.00600904  0.54241474  0.02776597     1.51530
Co225      Co  0.94195845  0.46073533  0.96294173     1.51690
Co226      Co  0.99301822  0.46090720  0.02960255     1.51570
Co227      Co  0.06596831  0.53427530  0.96328956     1.51470
O228        O  0.00218808  0.49907955  0.99002145    -1.43260
C229        C  0.00120838  0.63413308  0.99237746     1.08290
C230        C  0.86438326  0.43698285  0.00771660     1.08380
C231        C  0.93229348  0.47794591  0.07016829     1.08320
C232        C  0.95299469  0.54931335  0.92435327     1.08290
O233        O  0.82102597  0.12924705  0.80174239    -0.81330
O234        O  0.83403309  0.15790223  0.69789241    -0.81350
O235        O  0.83346917  0.04174206  0.77021510    -0.81360
O236        O  0.72119100  0.23795887  0.72619179    -0.81300
O237        O  0.87788737  0.09692711  0.74106346    -0.81420
O238        O  0.78866849  0.23136224  0.76394846    -0.81340
O239        O  0.74529101  0.17577305  0.67778818    -0.81330
O240        O  0.76772344  0.05719121  0.81587945    -0.81360
C241        C  0.81202389  0.08968575  0.82072215     1.08360
C242        C  0.80365958  0.17642257  0.67654418     1.08250
C243        C  0.88242326  0.05875477  0.75878782     1.08390
C244        C  0.76141442  0.25892672  0.74358577     1.08260
O245        O  0.66850099  0.21205933  0.77113242    -0.81330
O246        O  0.78223192  0.01240682  0.72630740    -0.81400
O247        O  0.67648292  0.11752528  0.79892516    -0.81340
O248        O  0.66150716  0.09446495  0.69896455    -0.81320
O249        O  0.75019124  0.07252925  0.67959662    -0.81370
O250        O  0.72730236  0.18844884  0.81746013    -0.81340
O251        O  0.62401611  0.15726684  0.74241582    -0.81300
O252        O  0.71095931  0.02015459  0.76185812    -0.81370
Co253      Co  0.74641406  0.16628563  0.77924758     1.51530
Co254      Co  0.80911406  0.08753215  0.71322533     1.51690
Co255      Co  0.75311854  0.08366211  0.77815589     1.51570
Co256      Co  0.69043187  0.16416012  0.71340041     1.51470
O257        O  0.75038015  0.12597635  0.74029647    -1.43260
C258        C  0.61957498  0.19668069  0.75923238     1.08290
C259        C  0.73985937  0.99197023  0.74274652     1.08380
C260        C  0.68267260  0.15457745  0.81925509     1.08320
C261        C  0.69160940  0.07025356  0.67942180     1.08290
O262        O  0.67595149  0.61613932  0.80017025    -0.81330
O263        O  0.66554418  0.58414501  0.69819628    -0.81350
O264        O  0.65726031  0.70450923  0.76902775    -0.81360
O265        O  0.79007136  0.51323304  0.72958552    -0.81300
O266        O  0.61755786  0.64711365  0.73996502    -0.81420
O267        O  0.72190353  0.51805989  0.76705500    -0.81340
O268        O  0.75700548  0.56737258  0.68020492    -0.81330
O269        O  0.71838581  0.69256732  0.81623649    -0.81360
C270        C  0.68017275  0.65379848  0.82018862     1.08360
C271        C  0.69900100  0.56179575  0.67899118     1.08250
C272        C  0.61008407  0.68638063  0.75657712     1.08390
C273        C  0.75199028  0.49124849  0.74770869     1.08260
O274        O  0.83890698  0.54987556  0.77307131    -0.81330
O275        O  0.70757318  0.73478843  0.72362130    -0.81400
O276        O  0.81974565  0.64238854  0.80015022    -0.81340
O277        O  0.83411930  0.65715630  0.69557871    -0.81320
O278        O  0.74159178  0.67084133  0.67755247    -0.81370
O279        O  0.77606893  0.56860228  0.81915950    -0.81340
O280        O  0.87998241  0.60311693  0.74191713    -0.81300
O281        O  0.77450422  0.73503523  0.76183330    -0.81370
Co282      Co  0.75608718  0.58746364  0.78014364     1.51530
Co283      Co  0.68603648  0.65701240  0.71213260     1.51690
Co284      Co  0.73981500  0.66825254  0.77825432     1.51570
Co285      Co  0.81236058  0.58803892  0.71409959     1.51470
O286        O  0.74889186  0.62506888  0.74030513    -1.43260
C287        C  0.88647222  0.56608717  0.76025037     1.08290
C288        C  0.74514690  0.75923311  0.74109328     1.08380
C289        C  0.81732440  0.60541973  0.82081193     1.08320
C290        C  0.79956393  0.67531367  0.67547000     1.08290
O291        O  0.17819988  0.36718981  0.80098542    -0.81330
O292        O  0.15787662  0.33511074  0.69691608    -0.81350
O293        O  0.15908883  0.45405883  0.76948661    -0.81360
O294        O  0.27807388  0.26146957  0.72830275    -0.81300
O295        O  0.11468481  0.39780643  0.74098225    -0.81420
O296        O  0.21127397  0.26883896  0.76574926    -0.81340
O297        O  0.25045213  0.31761161  0.67994756    -0.81330
O298        O  0.22587458  0.44255019  0.81529052    -0.81360
C299        C  0.18426369  0.40694080  0.81975364     1.08360
C300        C  0.19255891  0.31373574  0.67794094     1.08250
C301        C  0.11023175  0.43682403  0.75813397     1.08390
C302        C  0.23831166  0.24069111  0.74615256     1.08260
O303        O  0.33494638  0.29212088  0.77008263    -0.81330
O304        O  0.20549688  0.48331073  0.72400637    -0.81400
O305        O  0.32020127  0.38512703  0.79888908    -0.81340
O306        O  0.33117622  0.40380641  0.69463839    -0.81320
O307        O  0.23806973  0.42133501  0.67768477    -0.81370
O308        O  0.27401835  0.31120597  0.81703482    -0.81340
O309        O  0.37582767  0.34793471  0.74046109    -0.81300
O310        O  0.27710230  0.48200854  0.75984451    -0.81370
Co311      Co  0.25405000  0.33391683  0.77889856     1.51530
Co312      Co  0.18191771  0.40691429  0.71217793     1.51690
Co313      Co  0.24145710  0.41591776  0.77744378     1.51570
Co314      Co  0.30649591  0.33523087  0.71320285     1.51470
O315        O  0.24548144  0.37311997  0.73962191    -1.43260
C316        C  0.38285443  0.30953261  0.75777942     1.08290
C317        C  0.24492445  0.50754447  0.74039140     1.08380
C318        C  0.31593016  0.34724887  0.81918692     1.08320
C319        C  0.29631128  0.42318453  0.67496040     1.08290
O320        O  0.31652208  0.88229629  0.80119402    -0.81330
O321        O  0.33698690  0.90941681  0.69983510    -0.81350
O322        O  0.33320183  0.79256893  0.77132753    -0.81360
O323        O  0.21339200  0.98795023  0.72625503    -0.81300
O324        O  0.37673704  0.84971830  0.74358981    -0.81420
O325        O  0.28139999  0.98119551  0.76365650    -0.81340
O326        O  0.24925153  0.92896981  0.67881604    -0.81330
O327        O  0.26775561  0.80788906  0.81650042    -0.81360
C328        C  0.30792095  0.84445583  0.82116524     1.08360
C329        C  0.30762278  0.93082252  0.67892930     1.08250
C330        C  0.38193418  0.81019391  0.76017813     1.08390
C331        C  0.25220040  0.00896214  0.74433612     1.08260
O332        O  0.15977787  0.95529154  0.76949666    -0.81330
O333        O  0.28359410  0.76245579  0.72701183    -0.81400
O334        O  0.17544694  0.86691011  0.80050670    -0.81340
O335        O  0.16477089  0.84348517  0.69454314    -0.81320
O336        O  0.25791512  0.82399705  0.67894982    -0.81370
O337        O  0.22359003  0.94170214  0.81543670    -0.81340
O338        O  0.11865511  0.90191443  0.73844014    -0.81300
O339        O  0.21267455  0.76821539  0.76331319    -0.81370
Co340      Co  0.24097715  0.91559160  0.77824553     1.51530
Co341      Co  0.31107737  0.83854586  0.71437561     1.51690
Co342      Co  0.25208916  0.83349759  0.77872878     1.51570
Co343      Co  0.18906826  0.91299544  0.71176739     1.51470
O344        O  0.24753258  0.87457611  0.73999420    -1.43260
C345        C  0.11202100  0.93838733  0.75693418     1.08290
C346        C  0.24266354  0.74111400  0.74406458     1.08380
C347        C  0.18346424  0.90503821  0.82019910     1.08320
C348        C  0.19988344  0.82253502  0.67570212     1.08290
O349        O  0.49664464  0.94665158  0.43126641    -0.81330
O350        O  0.52910365  0.06142506  0.56750582    -0.81350
O351        O  0.63005049  0.02910982  0.49103313    -0.81360
O352        O  0.53490569  0.89017268  0.51222478    -0.81300
O353        O  0.58762491  0.08274572  0.52108751    -0.81420
O354        O  0.46187411  0.88759228  0.47755041    -0.81340
O355        O  0.57568578  0.98710624  0.55035109    -0.81330
O356        O  0.58755297  0.96881690  0.44834426    -0.81360
C357        C  0.55475037  0.94709670  0.42896539     1.08360
C358        C  0.56884481  0.02357004  0.57110544     1.08250
C359        C  0.63567971  0.06754893  0.50818606     1.08390
C360        C  0.50219363  0.86394377  0.49364672     1.08260
O361        O  0.37044850  0.97372221  0.49244999    -0.81330
O362        O  0.46460002  0.10354574  0.51701823    -0.81400
O363        O  0.50233122  0.05147115  0.42975949    -0.81340
O364        O  0.48335453  0.92815650  0.56650006    -0.81320
O365        O  0.43531455  0.00428692  0.55296958    -0.81370
O366        O  0.41112842  0.03172523  0.44699412    -0.81340
O367        O  0.41388487  0.91823339  0.52204173    -0.81300
O368        O  0.52850723  0.11198466  0.47815352    -0.81370
Co369      Co  0.43796520  0.96265727  0.46429567     1.51530
Co370      Co  0.50906191  0.03883585  0.52995048     1.51690
Co371      Co  0.55932307  0.03802163  0.46409674     1.51570
Co372      Co  0.49721425  0.95593661  0.52900924     1.51470
O373        O  0.50004165  0.99936141  0.49112543    -1.43260
C374        C  0.36518607  0.93549402  0.51012100     1.08290
C375        C  0.48970827  0.13176743  0.49679454     1.08380
C376        C  0.44429810  0.05154457  0.42710796     1.08320
C377        C  0.44455082  0.96555905  0.57230968     1.08290
O378        O  0.50638766  0.55838526  0.43003928    -0.81330
O379        O  0.47317145  0.42612599  0.56535552    -0.81350
O380        O  0.37048445  0.47743798  0.49038880    -0.81360
O381        O  0.46878702  0.60343398  0.51872535    -0.81300
O382        O  0.41117114  0.41799334  0.51815776    -0.81420
O383        O  0.53448869  0.61145475  0.48063737    -0.81340
O384        O  0.42813336  0.50279014  0.55066138    -0.81330
O385        O  0.41682636  0.54095145  0.44910957    -0.81360
C386        C  0.44832405  0.56246260  0.42902294     1.08360
C387        C  0.43029303  0.46124985  0.56869770     1.08250
C388        C  0.36352191  0.43723913  0.50645126     1.08390
C389        C  0.49654832  0.63165215  0.49932247     1.08260
O390        O  0.63128173  0.52601008  0.49107293    -0.81330
O391        O  0.52932193  0.38861599  0.51062416    -0.81400
O392        O  0.49497416  0.45426705  0.42773639    -0.81340
O393        O  0.52526034  0.55455247  0.56979094    -0.81320
O394        O  0.57169685  0.48144550  0.55157493    -0.81370
O395        O  0.58728036  0.47099336  0.44534626    -0.81340
O396        O  0.58961785  0.57526667  0.52397534    -0.81300
O397        O  0.46073878  0.39009491  0.47347490    -0.81370
Co398      Co  0.56203406  0.53891737  0.46413108     1.51530
Co399      Co  0.49361426  0.45441805  0.52814088     1.51690
Co400      Co  0.43881938  0.46780038  0.46241384     1.51570
Co401      Co  0.50760826  0.53527726  0.53085672     1.51470
O402        O  0.50157291  0.49909882  0.49062455    -1.43260
C403        C  0.63689965  0.56237300  0.50960537     1.08290
C404        C  0.49749805  0.36429972  0.49081658     1.08380
C405        C  0.55324454  0.45238018  0.42529769     1.08320
C406        C  0.56487570  0.51659221  0.57297942     1.08290
O407        O  0.00684245  0.29811385  0.42808108    -0.81330
O408        O  0.99015467  0.17581728  0.56546914    -0.81350
O409        O  0.87650620  0.21909024  0.49143425    -0.81360
O410        O  0.96745935  0.34888879  0.51488001    -0.81300
O411        O  0.92018204  0.16353104  0.52075401    -0.81420
O412        O  0.03264464  0.35824958  0.47635240    -0.81340
O413        O  0.93853153  0.24971699  0.55187615    -0.81330
O414        O  0.91611390  0.27806049  0.44576907    -0.81360
C415        C  0.94873244  0.30075176  0.42632584     1.08360
C416        C  0.94793418  0.21038395  0.57085989     1.08250
C417        C  0.87128132  0.18079662  0.50909188     1.08390
C418        C  0.99296005  0.37757885  0.49487964     1.08260
O419        O  0.13190173  0.27272436  0.48990311    -0.81330
O420        O  0.04286133  0.13931765  0.51111969    -0.81400
O421        O  0.99885170  0.19306127  0.42833094    -0.81340
O422        O  0.03395010  0.30841556  0.56642838    -0.81320
O423        O  0.08145900  0.23558426  0.54792182    -0.81370
O424        O  0.08927960  0.21331255  0.44674933    -0.81340
O425        O  0.08965603  0.32875868  0.51868635    -0.81300
O426        O  0.96968811  0.13323942  0.47635508    -0.81370
Co427      Co  0.06285628  0.28333006  0.46243899     1.51530
Co428      Co  0.00256055  0.20332419  0.52769032     1.51690
Co429      Co  0.94281036  0.20825721  0.46266982     1.51570
Co430      Co  0.01209863  0.28486026  0.52862553     1.51470
O431        O  0.00361709  0.24568222  0.48954197    -1.43260
C432        C  0.13762886  0.31219063  0.50628596     1.08290
C433        C  0.01147254  0.11161579  0.49287648     1.08380
C434        C  0.05719614  0.19231440  0.42675234     1.08320
C435        C  0.07747241  0.27344199  0.56802367     1.08290
O436        O  0.00816981  0.79556755  0.42889537    -0.81330
O437        O  0.97768241  0.68488238  0.56964031    -0.81350
O438        O  0.87270373  0.72362565  0.49351121    -0.81360
O439        O  0.97391532  0.85308917  0.51343572    -0.81300
O440        O  0.91387869  0.66809479  0.52350789    -0.81420
O441        O  0.04128803  0.85649464  0.47562366    -0.81340
O442        O  0.93321213  0.75877403  0.55068038    -0.81330
O443        O  0.91912790  0.78329504  0.44990552    -0.81360
C444        C  0.95011907  0.80105609  0.42862983     1.08360
C445        C  0.93803025  0.72327472  0.57196468     1.08250
C446        C  0.86607238  0.68525857  0.51111045     1.08390
C447        C  0.00244273  0.87906879  0.49322181     1.08260
O448        O  0.13570550  0.76987170  0.49049564    -0.81330
O449        O  0.02873284  0.63466683  0.51487370    -0.81400
O450        O  0.99487769  0.69344253  0.43032035    -0.81340
O451        O  0.03281735  0.80870400  0.56631408    -0.81320
O452        O  0.07793620  0.73328332  0.54971480    -0.81370
O453        O  0.08807348  0.70860056  0.44735166    -0.81340
O454        O  0.09229866  0.82505769  0.51982991    -0.81300
O455        O  0.95967080  0.63536543  0.47781678    -0.81370
Co456      Co  0.06554844  0.77996035  0.46297416     1.51530
Co457      Co  0.99713489  0.70451992  0.53026217     1.51690
Co458      Co  0.93937708  0.71124971  0.46484659     1.51570
Co459      Co  0.01143191  0.78617881  0.52872870     1.51470
O460        O  0.00410389  0.74411546  0.49092239    -1.43260
C461        C  0.14072699  0.80809870  0.50805912     1.08290
C462        C  0.99709409  0.61023674  0.49490404     1.08380
C463        C  0.05316543  0.68949667  0.42783488     1.08320
C464        C  0.07543832  0.77275104  0.56885588     1.08290
C465        C  0.96978603  0.46468054  0.47026861    -0.10340
C466        C  0.98536646  0.43658332  0.49586991     0.05850
C467        C  0.00093504  0.46595980  0.52129389    -0.04110
C468        C  0.00937476  0.52172395  0.51963119    -0.08560
C469        C  0.99521532  0.55035491  0.49386404     0.04970
C470        C  0.96986889  0.52119150  0.46973086    -0.03590
Br471      Br  0.92783978  0.55360268  0.43669917    -0.03280
H472        H  0.95489163  0.44253365  0.45103305     0.08880
H473        H  0.02320127  0.54313872  0.53927259     0.06900
Br474      Br  0.00739256  0.43353636  0.55937101    -0.03710
C475        C  0.99049752  0.02455363  0.46871958    -0.10340
C476        C  0.01560439  0.05182684  0.49292528     0.05850
C477        C  0.03382751  0.02115201  0.51784888    -0.04110
C478        C  0.02611850  0.96496734  0.51785599    -0.08560
C479        C  0.00084889  0.93838030  0.49350914     0.04970
C480        C  0.98346140  0.96870807  0.46877069    -0.03590
Br481      Br  0.94586940  0.93714756  0.43516231    -0.03280
H482        H  0.97407053  0.04698123  0.44983102     0.08880
H483        H  0.04100119  0.94168621  0.53683383     0.06900
Br484      Br  0.06596391  0.05229962  0.55328213    -0.03710
C485        C  0.30665135  0.35071429  0.51251698    -0.10340
C486        C  0.30434028  0.40701762  0.50766834     0.05850
C487        C  0.24634773  0.43156918  0.50250428    -0.04110
C488        C  0.19279253  0.39990267  0.50221457    -0.08560
C489        C  0.19550184  0.34372426  0.50699688     0.04970
C490        C  0.25315823  0.31917564  0.51210779    -0.03590
Br491      Br  0.26108933  0.24310540  0.51969270    -0.03280
H492        H  0.35058546  0.33068743  0.51606572     0.08880
H493        H  0.14860465  0.41930749  0.49827552     0.06900
Br494      Br  0.23661861  0.50804645  0.49665074    -0.03710
C495        C  0.75789112  0.67081738  0.49467486    -0.10340
C496        C  0.80620298  0.65551716  0.51350107     0.05850
C497        C  0.79770888  0.60888634  0.53144505    -0.04110
C498        C  0.74186450  0.58008039  0.53039059    -0.08560
C499        C  0.69432774  0.59516818  0.51110530     0.04970
C500        C  0.70360163  0.64070840  0.49273322    -0.03590
Br501      Br  0.64778454  0.66243056  0.46228686    -0.03280
H502        H  0.76340555  0.70517252  0.48008720     0.08880
H503        H  0.73642991  0.54459223  0.54401986     0.06900
Br504      Br  0.86043645  0.57981015  0.55694457    -0.03710
C505        C  0.30884247  0.84883904  0.51891440    -0.10340
C506        C  0.30629012  0.90475455  0.51263428     0.05850
C507        C  0.24817194  0.92827410  0.50634089    -0.04110
C508        C  0.19516814  0.89600193  0.50575916    -0.08560
C509        C  0.19834368  0.83992288  0.51069315     0.04970
C510        C  0.25571776  0.81649456  0.51776372    -0.03590
Br511      Br  0.26328500  0.74103429  0.52691401    -0.03280
H512        H  0.35272278  0.82967592  0.52380711     0.08880
H513        H  0.15116729  0.91475476  0.50061584     0.06900
Br514      Br  0.23737906  0.00411627  0.49853737    -0.03710
C515        C  0.53344909  0.77659521  0.51643245    -0.10340
C516        C  0.50233729  0.80389608  0.49369053     0.05850
C517        C  0.46533448  0.77313317  0.47397029    -0.04110
C518        C  0.46168482  0.71708986  0.47717186    -0.08560
C519        C  0.49229641  0.69062039  0.50003020     0.04970
C520        C  0.52837324  0.72069448  0.51983954    -0.03590
Br521      Br  0.57332331  0.68779737  0.55157039    -0.03280
H522        H  0.56099680  0.79881417  0.53212394     0.08880
H523        H  0.43533129  0.69378798  0.46144614     0.06900
Br524      Br  0.41769042  0.80273667  0.44192020    -0.03710
C525        C  0.45390624  0.21741269  0.47426704    -0.10340
C526        C  0.48315494  0.19075565  0.49750420     0.05850
C527        C  0.51498939  0.22116309  0.51875003    -0.04110
C528        C  0.52188371  0.27675207  0.51499865    -0.08560
C529        C  0.49391426  0.30418206  0.49136494     0.04970
C530        C  0.45618919  0.27377864  0.47178885    -0.03590
Br531      Br  0.40198172  0.30443239  0.44261269    -0.03280
H532        H  0.42835229  0.19422729  0.45821405     0.08880
H533        H  0.54813350  0.29868182  0.53130168     0.06900
Br534      Br  0.55278827  0.18920465  0.55279870    -0.03710
C535        C  0.74746497  0.07255754  0.52202384    -0.10340
C536        C  0.69486906  0.09795442  0.51033877     0.05850
C537        C  0.70119635  0.15094490  0.49908076    -0.04110
C538        C  0.75786932  0.17768888  0.50065093    -0.08560
C539        C  0.81066727  0.15260257  0.51245033     0.04970
C540        C  0.80462064  0.09923586  0.52361406    -0.03590
Br541      Br  0.87226213  0.05860026  0.53989146    -0.03280
H542        H  0.74457810  0.03113131  0.52921952     0.08880
H543        H  0.76114943  0.21786518  0.49122632     0.06900
Br544      Br  0.63808277  0.18686546  0.47704976    -0.03710
C545        C  0.35217291  0.98571542  0.60305859    -0.10340
C546        C  0.41116407  0.96290596  0.60042042     0.05850
C547        C  0.43785956  0.93670293  0.62502836    -0.04110
C548        C  0.40406347  0.93071521  0.65064005    -0.08560
C549        C  0.34300593  0.94934994  0.65282178     0.04970
C550        C  0.31779450  0.97915383  0.62891019    -0.03590
Br551      Br  0.23881806  0.01415483  0.62971667    -0.03280
H552        H  0.33198641  0.00741759  0.58466366     0.08880
H553        H  0.42550119  0.90878552  0.66862259     0.06900
Br554      Br  0.52022929  0.90704845  0.62608119    -0.03710
C555        C  0.12790242  0.83547101  0.60118818    -0.10340
C556        C  0.12191867  0.78166090  0.59211650     0.05850
C557        C  0.14677381  0.74011133  0.61005848    -0.04110
C558        C  0.17535805  0.75359406  0.63690874    -0.08560
C559        C  0.17405199  0.80723944  0.64706697     0.04970
C560        C  0.14841122  0.84779148  0.62911447    -0.03590
Br561      Br  0.12996020  0.91916503  0.64275545    -0.03280
H562        H  0.10887340  0.86808169  0.58796579     0.08880
H563        H  0.19428137  0.72190130  0.65077077     0.06900
Br564      Br  0.13455293  0.66509723  0.60142993    -0.03710
C565        C  0.35668670  0.49539966  0.60672371    -0.10340
C566        C  0.38301341  0.45151748  0.59165978     0.05850
C567        C  0.37158153  0.39858322  0.60216913    -0.04110
C568        C  0.34178118  0.39110480  0.62898123    -0.08560
C569        C  0.32276381  0.43524295  0.64588117     0.04970
C570        C  0.32871515  0.48775750  0.63427627    -0.03590
Br571      Br  0.30801172  0.55019489  0.65684332    -0.03280
H572        H  0.36380914  0.53619034  0.59870469     0.08880
H573        H  0.33480196  0.35031964  0.63708285     0.06900
Br574      Br  0.39489617  0.33429836  0.58119078    -0.03710
C575        C  0.12251126  0.23695212  0.61395090    -0.10340
C576        C  0.12130959  0.27813081  0.59263033     0.05850
C577        C  0.14830202  0.32833583  0.59941772    -0.04110
C578        C  0.17172475  0.33764852  0.62727340    -0.08560
C579        C  0.16750226  0.29854520  0.64931052     0.04970
C580        C  0.14396332  0.24725350  0.64254968    -0.03590
Br581      Br  0.13682416  0.19192829  0.67179539    -0.03280
H582        H  0.10329523  0.19831174  0.60887214     0.08880
H583        H  0.19177145  0.37662604  0.63196854     0.06900
Br584      Br  0.15449048  0.38731660  0.57256714    -0.03710
C585        C  0.27306929  0.59501922  0.76329326    -0.10340
C586        C  0.24516283  0.56780919  0.73976180     0.05850
C587        C  0.21127788  0.59906215  0.71876335    -0.04110
C588        C  0.21046721  0.65555372  0.72067006    -0.08560
C589        C  0.23835434  0.68187980  0.74422900     0.04970
C590        C  0.26845230  0.65104062  0.76609215    -0.03590
Br591      Br  0.30379448  0.68256657  0.80063223    -0.03280
H592        H  0.29683431  0.57255257  0.78039577     0.08880
H593        H  0.18683676  0.67912079  0.70394565     0.06900
Br594      Br  0.16171685  0.56947222  0.68761928    -0.03710
C595        C  0.22986101  0.09379720  0.77096979    -0.10340
C596        C  0.25306898  0.06818684  0.74581695     0.05850
C597        C  0.26517594  0.09907650  0.72074771    -0.04110
C598        C  0.25133327  0.15401468  0.72031192    -0.08560
C599        C  0.23191537  0.18098844  0.74581885     0.04970
C600        C  0.22047954  0.14994260  0.77147862    -0.03590
Br601      Br  0.19566174  0.18078083  0.80832636    -0.03280
H602        H  0.21892295  0.06996302  0.79030160     0.08880
H603        H  0.26228165  0.17675717  0.70062494     0.06900
Br604      Br  0.31172482  0.07045022  0.68888150    -0.03710
C605        C  0.66478968  0.50768800  0.60152472    -0.10340
C606        C  0.60051494  0.51515224  0.60095550     0.05850
C607        C  0.57049849  0.52789888  0.62759906    -0.04110
C608        C  0.60387392  0.53632125  0.65314393    -0.08560
C609        C  0.66833950  0.53594323  0.65321214     0.04970
C610        C  0.69910560  0.51875326  0.62725475    -0.03590
Br611      Br  0.78718627  0.51238287  0.62466569    -0.03280
H612        H  0.68864808  0.49650838  0.58161557     0.08880
H613        H  0.57854503  0.54747291  0.67272687     0.06900
Br614      Br  0.48378465  0.53900444  0.63133067    -0.03710
C615        C  0.88649767  0.72052836  0.65083494    -0.10340
C616        C  0.82795431  0.69743681  0.64840730     0.05850
C617        C  0.80138354  0.69203269  0.62005935    -0.04110
C618        C  0.83616456  0.70519648  0.59504691    -0.08560
C619        C  0.89677553  0.72395961  0.59772944     0.04970
C620        C  0.92027249  0.73443066  0.62599972    -0.03590
Br621      Br  0.99758287  0.76840978  0.63278993    -0.03280
H622        H  0.90674088  0.72701219  0.67231845     0.08880
H623        H  0.81700784  0.69793051  0.57347297     0.06900
Br624      Br  0.72082156  0.66248105  0.61338115    -0.03710
C625        C  0.94033750  0.47727737  0.76155498    -0.10340
C626        C  0.94435583  0.53406774  0.76219114     0.05850
C627        C  0.00304414  0.55807712  0.76294305    -0.04110
C628        C  0.05611927  0.52543995  0.76258493    -0.08560
C629        C  0.05218305  0.46862199  0.76093875     0.04970
C630        C  0.99333209  0.44463833  0.76056527    -0.03590
Br631      Br  0.98227391  0.36775595  0.75908653    -0.03280
H632        H  0.89555410  0.45807608  0.76081143     0.08880
H633        H  0.10086457  0.54482114  0.76276185     0.06900
Br634      Br  0.01317755  0.63496591  0.76516895    -0.03710
C635        C  0.55122597  0.77102322  0.76696806    -0.10340
C636        C  0.55020203  0.71619471  0.75855211     0.05850
C637        C  0.49269494  0.69289022  0.75120958    -0.04110
C638        C  0.43844133  0.72372695  0.75338735    -0.08560
C639        C  0.43999551  0.77853647  0.76133788     0.04970
C640        C  0.49725792  0.80238902  0.76764511    -0.03590
Br641      Br  0.50450593  0.87769472  0.77689928    -0.03280
H642        H  0.59461984  0.79035631  0.77213143     0.08880
H643        H  0.39485394  0.70525469  0.74763722     0.06900
Br644      Br  0.48416330  0.61946269  0.73820457    -0.03710
C645        C  0.56673151  0.04273419  0.62362945    -0.10340
C646        C  0.60089456  0.02251388  0.59987705     0.05850
C647        C  0.66239113  0.00647540  0.60478838    -0.04110
C648        C  0.69106338  0.01952236  0.63162490    -0.08560
C649        C  0.65804042  0.04569094  0.65428758     0.04970
C650        C  0.59372734  0.05340999  0.65061427    -0.03590
Br651      Br  0.53824888  0.08092841  0.68013595    -0.03280
H652        H  0.51799425  0.05164493  0.62101358     0.08880
H653        H  0.73968147  0.01056079  0.63440921     0.06900
Br654      Br  0.70874932  0.96724821  0.57618449    -0.03710
C655        C  0.84959571  0.22406692  0.59899700    -0.10340
C656        C  0.90979271  0.20286154  0.59753658     0.05850
C657        C  0.93245394  0.17281831  0.62181051    -0.04110
C658        C  0.89806056  0.16917538  0.64730537    -0.08560
C659        C  0.83779279  0.18964564  0.64910576     0.04970
C660        C  0.81243708  0.21544667  0.62393314    -0.03590
Br661      Br  0.72728824  0.23585423  0.62069827    -0.03280
H662        H  0.83025295  0.24493003  0.58012082     0.08880
H663        H  0.91804996  0.14664080  0.66544708     0.06900
Br664      Br  0.00750457  0.13108983  0.62250558    -0.03710
C665        C  0.93982147  0.97177582  0.75807445    -0.10340
C666        C  0.94096220  0.02813438  0.76181051     0.05850
C667        C  0.99819295  0.05387614  0.76570485    -0.04110
C668        C  0.05282542  0.02330212  0.76563703    -0.08560
C669        C  0.05209749  0.96717296  0.76047002     0.04970
C670        C  0.99454714  0.94144693  0.75669519    -0.03590
Br671      Br  0.98715609  0.86544548  0.74902247    -0.03280
H672        H  0.89614715  0.95149719  0.75473160     0.08880
H673        H  0.09639056  0.04406064  0.76832685     0.06900
Br674      Br  0.00427943  0.13058900  0.77109615    -0.03710
C675        C  0.75297113  0.90539237  0.71621519    -0.10340
C676        C  0.73187006  0.93248744  0.74145366     0.05850
C677        C  0.71343711  0.90127450  0.76600811    -0.04110
C678        C  0.72113243  0.84512651  0.76561456    -0.08560
C679        C  0.74442143  0.81867450  0.74078036     0.04970
C680        C  0.75841969  0.84914224  0.71559455    -0.03590
Br681      Br  0.78773403  0.81670514  0.68025080    -0.03280
H682        H  0.76664845  0.92818040  0.69692622     0.08880
H683        H  0.70742048  0.82169053  0.78467905     0.06900
Br684      Br  0.67799870  0.93134721  0.80093688    -0.03710
C685        C  0.73892329  0.40589173  0.72122262    -0.10340
C686        C  0.75033766  0.43199937  0.74776720     0.05850
C687        C  0.77153208  0.40157215  0.77203264    -0.04110
C688        C  0.78002353  0.34566983  0.76946172    -0.08560
C689        C  0.76628019  0.31878334  0.74311917     0.04970
C690        C  0.74578021  0.35004084  0.71874194    -0.03590
Br691      Br  0.72611558  0.32066260  0.68107334    -0.03280
H692        H  0.72474929  0.42933222  0.70216382     0.08880
H693        H  0.79465288  0.32293669  0.78864171     0.06900
Br694      Br  0.79133887  0.43412296  0.80896131    -0.03710
C695        C  0.49545286  0.30657622  0.77150817    -0.10340
C696        C  0.44322630  0.28053036  0.76009644     0.05850
C697        C  0.45055915  0.22733886  0.74957782    -0.04110
C698        C  0.50705730  0.20066955  0.75145364    -0.08560
C699        C  0.55968571  0.22632467  0.76223370     0.04970
C700        C  0.55347320  0.28037041  0.77239478    -0.03590
Br701      Br  0.62200246  0.32260478  0.78553328    -0.03280
H702        H  0.49142253  0.34785625  0.77915330     0.08880
H703        H  0.51032931  0.15993077  0.74288208     0.06900
Br704      Br  0.38941805  0.19019887  0.72806583    -0.03710
C705        C  0.88817458  0.54630681  0.84725505    -0.10340
C706        C  0.86495680  0.59864761  0.84374408     0.05850
C707        C  0.87726522  0.63743795  0.86560379    -0.04110
C708        C  0.90844216  0.62173025  0.89154651    -0.08560
C709        C  0.92684477  0.56761007  0.89591650     0.04970
C710        C  0.91716667  0.53017697  0.87304534    -0.03590
Br711      Br  0.93529385  0.45463625  0.87580955    -0.03280
H712        H  0.87960979  0.51632130  0.83048825     0.08880
H713        H  0.91597309  0.65113586  0.90874236     0.06900
Br714      Br  0.84891890  0.71061830  0.86186919    -0.03710
C715        C  0.10176517  0.47330930  0.88263922    -0.10340
C716        C  0.08839004  0.42904816  0.90070137     0.05850
C717        C  0.09897186  0.37636007  0.89030142    -0.04110
C718        C  0.12696361  0.36898334  0.86271785    -0.08560
C719        C  0.14318034  0.41384587  0.84527175     0.04970
C720        C  0.12777964  0.46627993  0.85504447    -0.03590
Br721      Br  0.13981565  0.53042109  0.83173469    -0.03280
H722        H  0.09158126  0.51395995  0.88998828     0.08880
H723        H  0.13845690  0.32849207  0.85551657     0.06900
Br724      Br  0.07837380  0.31428443  0.91350911    -0.03710
C725        C  0.89935700  0.11534137  0.85501875    -0.10340
C726        C  0.85220479  0.07909948  0.84685783     0.05850
C727        C  0.84157527  0.03346817  0.86526549    -0.04110
C728        C  0.87417189  0.02714661  0.89125339    -0.08560
C729        C  0.91945376  0.06371973  0.89996367     0.04970
C730        C  0.93359832  0.10747893  0.88118704    -0.03590
Br731      Br  0.99676639  0.15834751  0.89094955    -0.03280
H732        H  0.90909300  0.15015172  0.84130758     0.08880
H733        H  0.86451031  0.99196456  0.90475534     0.06900
Br734      Br  0.78471674  0.97548829  0.85768581    -0.03710
C735        C  0.18505795  0.92997738  0.87194752    -0.10340
C736        C  0.15123804  0.90755536  0.84866715     0.05850
C737        C  0.09032766  0.89078324  0.85374792    -0.04110
C738        C  0.06275543  0.90168822  0.88098030    -0.08560
C739        C  0.09592137  0.92726720  0.90372636     0.04970
C740        C  0.15898088  0.93893716  0.89927044    -0.03590
Br741      Br  0.21366477  0.96901980  0.92828140    -0.03280
H742        H  0.23312016  0.94065693  0.86893680     0.08880
H743        H  0.01477520  0.89108943  0.88414077     0.06900
Br744      Br  0.04211260  0.85543375  0.82438640    -0.03710
C745        C  0.03291049  0.72223192  0.97106908    -0.10340
C746        C  0.00329157  0.69408396  0.99396975     0.05850
C747        C  0.98666556  0.72315114  0.01961630    -0.04110
C748        C  0.99846897  0.77865696  0.02129893    -0.08560
C749        C  0.02413051  0.80679525  0.99751817     0.04970
C750        C  0.04334442  0.77779594  0.97272945    -0.03590
Br751      Br  0.08815261  0.81128933  0.94160787    -0.03280
H752        H  0.04876823  0.70089358  0.95174689     0.08880
H753        H  0.98270566  0.80082360  0.04039727     0.06900
Br754      Br  0.94595654  0.69163313  0.05301353    -0.03710
C755        C  0.05285273  0.21923905  0.99416841    -0.10340
C756        C  0.99536373  0.19279362  0.99615314     0.05850
C757        C  0.94155619  0.22374531  0.00005395    -0.04110
C758        C  0.94583078  0.28006440  0.00079981    -0.08560
C759        C  0.00326149  0.30623507  0.99866991     0.04970
C760        C  0.05722912  0.27543439  0.99593610    -0.03590
Br761      Br  0.13712996  0.30820289  0.99332853    -0.03280
H762        H  0.09498055  0.19599035  0.99165808     0.08880
H763        H  0.90388050  0.30371799  0.00293248     0.06900
Br764      Br  0.86123741  0.19181652  0.00292239    -0.03710
C765        C  0.55221230  0.66094225  0.87709905    -0.10340
C766        C  0.58707896  0.67220499  0.90250302     0.05850
C767        C  0.65202226  0.66665989  0.90102823    -0.04110
C768        C  0.68032309  0.65779952  0.87396908    -0.08560
C769        C  0.64573815  0.65196368  0.84816461     0.04970
C770        C  0.58106727  0.64967960  0.85021995    -0.03590
Br771      Br  0.52989510  0.63327912  0.81735503    -0.03280
H772        H  0.50228896  0.66272210  0.87780951     0.08880
H773        H  0.73015944  0.65628264  0.87298167     0.06900
Br774      Br  0.70583922  0.67040351  0.93461155    -0.03710
C775        C  0.40642388  0.85194755  0.84936886    -0.10340
C776        C  0.34299904  0.84139534  0.84885620     0.05850
C777        C  0.31398462  0.82293024  0.87479668    -0.04110
C778        C  0.34796095  0.81643224  0.90034635    -0.08560
C779        C  0.41222482  0.82268915  0.90065567     0.04970
C780        C  0.44178603  0.84081326  0.87458878    -0.03590
Br781      Br  0.52973594  0.84705900  0.87047131    -0.03280
H782        H  0.42918733  0.86516043  0.82951262     0.08880
H783        H  0.32373691  0.80231304  0.91969958     0.06900
Br784      Br  0.22905016  0.80086691  0.87735959    -0.03710
C785        C  0.30893207  0.59817624  0.01406360    -0.10340
C786        C  0.30674802  0.65508792  0.01355395     0.05850
C787        C  0.24862193  0.68085703  0.01425502    -0.04110
C788        C  0.19445730  0.64989809  0.01452817    -0.08560
C789        C  0.19655470  0.59299878  0.01334686     0.04970
C790        C  0.25474404  0.56720055  0.01356803    -0.03590
Br791      Br  0.26307963  0.48992285  0.01350507    -0.03280
H792        H  0.35312488  0.57755206  0.01364170     0.08880
H793        H  0.15030889  0.67063869  0.01448585     0.06900
Br794      Br  0.24048624  0.75812109  0.01520768    -0.03710
C795        C  0.74626441  0.81673875  0.00450602    -0.10340
C796        C  0.69210855  0.84634633  0.00982246     0.05850
C797        C  0.69689491  0.90312506  0.01248732    -0.04110
C798        C  0.75413373  0.92846003  0.00969843    -0.08560
C799        C  0.80859433  0.89856971  0.00689656     0.04970
C800        C  0.80368683  0.84223830  0.00266209    -0.03590
Br801      Br  0.86956466  0.79950865  0.98772978    -0.03280
H802        H  0.74370010  0.77360486  0.00058304     0.08880
H803        H  0.75616678  0.97217551  0.01011704     0.06900
Br804      Br  0.62836550  0.94991984  0.01890682    -0.03710
C805        C  0.62466727  0.21728356  0.84983393    -0.10340
C806        C  0.63687646  0.16344787  0.84263825     0.05850
C807        C  0.61374583  0.12199449  0.86088972    -0.04110
C808        C  0.58271458  0.13556572  0.88701487    -0.08560
C809        C  0.57521504  0.18995556  0.89512267     0.04970
C810        C  0.59492324  0.23087244  0.87569322    -0.03590
Br811      Br  0.58643339  0.30667843  0.88309135    -0.03280
H812        H  0.64174150  0.24954440  0.83595347     0.08880
H813        H  0.56699129  0.10376998  0.90158609     0.06900
Br814      Br  0.62800341  0.04713100  0.85270846    -0.03710
C815        C  0.36061701  0.38413988  0.86530887    -0.10340
C816        C  0.35867806  0.34258202  0.84426183     0.05850
C817        C  0.38527316  0.29192493  0.85122236    -0.04110
C818        C  0.41177819  0.28332615  0.87864411    -0.08560
C819        C  0.41100571  0.32351692  0.90012494     0.04970
C820        C  0.38618821  0.37468442  0.89333554    -0.03590
Br821      Br  0.38298423  0.43087498  0.92212530    -0.03280
H822        H  0.33846284  0.42259987  0.86070794     0.08880
H823        H  0.43138398  0.24398089  0.88354171     0.06900
Br824      Br  0.38353149  0.23084556  0.82534448    -0.03710
C825        C  0.25973291  0.16952167  0.03000751    -0.10340
C826        C  0.30716644  0.15143621  0.01145394     0.05850
C827        C  0.29719183  0.10419151  0.99487363    -0.04110
C828        C  0.24212775  0.07561863  0.99748267    -0.08560
C829        C  0.19357732  0.09382495  0.01533360     0.04970
C830        C  0.20312082  0.14171326  0.03188653    -0.03590
Br831      Br  0.14127000  0.17298945  0.05669423    -0.03280
H832        H  0.26624241  0.20607747  0.04264272     0.08880
H833        H  0.23643381  0.03986423  0.98412901     0.06900
Br834      Br  0.35319767  0.07841048  0.96568490    -0.03710
C835        C  0.50707693  0.47182034  0.97141852    -0.10340
C836        C  0.48825257  0.44478325  0.99705588     0.05850
C837        C  0.47808819  0.47535863  0.02283051    -0.04110
C838        C  0.48853882  0.53130051  0.02243910    -0.08560
C839        C  0.50850519  0.55761431  0.99677322     0.04970
C840        C  0.51712252  0.52724610  0.97111657    -0.03590
Br841      Br  0.54500406  0.55836607  0.93512609    -0.03280
H842        H  0.51568867  0.44942595  0.95141631     0.08880
H843        H  0.47912326  0.55467678  0.04203694     0.06900
Br844      Br  0.45176833  0.44400768  0.05937205    -0.03710
C845        C  0.50575237  0.02984801  0.96616515    -0.10340
C846        C  0.50652934  0.05703046  0.99311477     0.05850
C847        C  0.49301167  0.02743403  0.01897266    -0.04110
C848        C  0.48016890  0.97209428  0.01745158    -0.08560
C849        C  0.48315942  0.94430861  0.99068413     0.04970
C850        C  0.49465430  0.97424058  0.96478844    -0.03590
Br851      Br  0.49266981  0.94238014  0.92666708    -0.03280
H852        H  0.51268429  0.05228034  0.94595420     0.08880
H853        H  0.47249853  0.94995107  0.03771294     0.06900
Br854      Br  0.49126328  0.05908052  0.05727103    -0.03710
C855        C  0.73420862  0.34059376  0.03127110    -0.10340
C856        C  0.69279503  0.34676079  0.00783157     0.05850
C857        C  0.70784412  0.38294956  0.98495338    -0.04110
C858        C  0.76221324  0.41319211  0.98621781    -0.08560
C859        C  0.80462542  0.40685337  0.00939991     0.04970
C860        C  0.79029274  0.36904810  0.03196003    -0.03590
Br861      Br  0.84460164  0.35301167  0.06419946    -0.03280
H862        H  0.72366342  0.31247077  0.04877357     0.08880
H863        H  0.77225054  0.44059607  0.96824364     0.06900
Br864      Br  0.65682893  0.39203459  0.95082247    -0.03710
C865        C  0.39644174  0.69295751  0.15054692    -0.10340
C866        C  0.33245184  0.70165201  0.15132521     0.05850
C867        C  0.30333135  0.72329485  0.12591801    -0.04110
C868        C  0.33821480  0.73294731  0.10027696    -0.08560
C869        C  0.40134805  0.71983474  0.09929064     0.04970
C870        C  0.43033152  0.70024458  0.12510366    -0.03590
Br871      Br  0.51633007  0.68060745  0.12802614    -0.03280
H872        H  0.42073120  0.67714752  0.16956202     0.08880
H873        H  0.31541068  0.74823162  0.08073772     0.06900
Br874      Br  0.21675284  0.73956979  0.12441209    -0.03710
C875        C  0.15527648  0.51437985  0.10217515    -0.10340
C876        C  0.09574685  0.53670957  0.09914253     0.05850
C877        C  0.06960825  0.56440787  0.12334689    -0.04110
C878        C  0.10280446  0.56982946  0.14918259    -0.08560
C879        C  0.16337871  0.55036742  0.15200117     0.04970
C880        C  0.18958213  0.52165603  0.12822022    -0.03590
Br881      Br  0.27103356  0.49120461  0.13005367    -0.03280
H882        H  0.17590495  0.49277420  0.08398723     0.08880
H883        H  0.08133574  0.59219390  0.16688519     0.06900
Br884      Br  0.98892396  0.59769950  0.12376782    -0.03710
C885        C  0.41090980  0.61439235  0.35113662    -0.10340
C886        C  0.34834345  0.59994618  0.34954526     0.05850
C887        C  0.31941288  0.58032446  0.37529655    -0.04110
C888        C  0.35221848  0.57475246  0.40123531    -0.08560
C889        C  0.41572871  0.58408557  0.40254495     0.04970
C890        C  0.44514639  0.60567373  0.37720299    -0.03590
Br891      Br  0.53149122  0.62240868  0.37611732    -0.03280
H892        H  0.43403178  0.62948155  0.33169522     0.08880
H893        H  0.32786705  0.55877524  0.42012343     0.06900
Br894      Br  0.23601396  0.55538303  0.37740421    -0.03710
C895        C  0.11287848  0.62125085  0.35831434    -0.10340
C896        C  0.13746206  0.66623328  0.34356328     0.05850
C897        C  0.12796372  0.71828302  0.35562107    -0.04110
C898        C  0.09938410  0.72367849  0.38276883    -0.08560
C899        C  0.07989585  0.67857204  0.39873491     0.04970
C900        C  0.08681829  0.62681970  0.38641657    -0.03590
Br901      Br  0.07217665  0.56272324  0.40876050    -0.03280
H902        H  0.11939504  0.58115958  0.34933723     0.08880
H903        H  0.09433434  0.76363292  0.39203284     0.06900
Br904      Br  0.15345730  0.78447055  0.33693305    -0.03710
C905        C  0.39793587  0.18087188  0.14819956    -0.10340
C906        C  0.33789029  0.20128110  0.15097475     0.05850
C907        C  0.31222273  0.23140574  0.12746698    -0.04110
C908        C  0.34569448  0.23746629  0.10121373    -0.08560
C909        C  0.40444635  0.21390829  0.09816486     0.04970
C910        C  0.43116142  0.18676840  0.12254501    -0.03590
Br911      Br  0.51415133  0.15820860  0.12409193    -0.03280
H912        H  0.41941877  0.15845244  0.16599689     0.08880
H913        H  0.32556861  0.26003666  0.08313574     0.06900
Br914      Br  0.23394441  0.26728634  0.13037035    -0.03710
C915        C  0.09156091  0.08956113  0.11312229    -0.10340
C916        C  0.09705604  0.03930755  0.09915132     0.05850
C917        C  0.13750776  0.00005383  0.11129721    -0.04110
C918        C  0.17208372  0.01257264  0.13659536    -0.08560
C919        C  0.16502288  0.06291752  0.15039279     0.04970
C920        C  0.12424812  0.10144151  0.13831240    -0.03590
Br921      Br  0.11024969  0.17200172  0.15475951    -0.03280
H922        H  0.06077584  0.12051988  0.10465820     0.08880
H923        H  0.20262165  0.98242477  0.14609130     0.06900
Br924      Br  0.14385833  0.92797683  0.09614726    -0.03710
C925        C  0.19524336  0.90803699  0.23604318    -0.10340
C926        C  0.25206138  0.93382530  0.23897583     0.05850
C927        C  0.30650091  0.90177840  0.23796080    -0.04110
C928        C  0.30297040  0.84556569  0.23989192    -0.08560
C929        C  0.24621201  0.81966195  0.23780083     0.04970
C930        C  0.19250447  0.85176376  0.23296087    -0.03590
Br931      Br  0.11610850  0.82370065  0.21836091    -0.03280
H932        H  0.15346038  0.93198012  0.23399207     0.08880
H933        H  0.34504325  0.82179651  0.24103368     0.06900
Br934      Br  0.38664789  0.93000580  0.23006866    -0.03710
C935        C  0.28426576  0.40609942  0.22269016    -0.10340
C936        C  0.24748617  0.43277519  0.24385487     0.05850
C937        C  0.21770127  0.40126819  0.26560672    -0.04110
C938        C  0.22559932  0.34521798  0.26568612    -0.08560
C939        C  0.26209086  0.31952801  0.24450919     0.04970
C940        C  0.29203635  0.35019765  0.22307902    -0.03590
Br941      Br  0.34649740  0.31797159  0.19500312    -0.03280
H942        H  0.30869288  0.42872696  0.20597405     0.08880
H943        H  0.20213782  0.32123637  0.28217734     0.06900
Br944      Br  0.16618207  0.43044297  0.29608756    -0.03710
C945        C  0.37373665  0.03654435  0.35204496    -0.10340
C946        C  0.36261054  0.09010382  0.34368447     0.05850
C947        C  0.38187234  0.13223082  0.36239863    -0.04110
C948        C  0.41017050  0.11948864  0.38944905    -0.08560
C949        C  0.41674031  0.06533781  0.39847736     0.04970
C950        C  0.39825437  0.02381871  0.37926575    -0.03590
Br951      Br  0.39940647  0.94831423  0.38865257    -0.03280
H952        H  0.35891535  0.00368625  0.33805060     0.08880
H953        H  0.42446691  0.15173509  0.40395148     0.06900
Br954      Br  0.36527658  0.20674430  0.35365407    -0.03710
C955        C  0.10926146  0.12768683  0.35478211    -0.10340
C956        C  0.14962171  0.16804753  0.34466902     0.05850
C957        C  0.15517099  0.21648697  0.36116493    -0.04110
C958        C  0.12642344  0.22085340  0.38813386    -0.08560
C959        C  0.08781391  0.18034448  0.39873426     0.04970
C960        C  0.07709110  0.13421633  0.38138344    -0.03590
Br961      Br  0.02166276  0.07853491  0.39346634    -0.03280
H962        H  0.10355328  0.09079723  0.34234939     0.08880
H963        H  0.13259917  0.25772696  0.40060465     0.06900
Br964      Br  0.19843893  0.28086567  0.34888839    -0.03710
C965        C  0.65957416  0.77394917  0.10035611    -0.10340
C966        C  0.59733439  0.78984639  0.09846148     0.05850
C967        C  0.56874819  0.81214000  0.12362879    -0.04110
C968        C  0.60218893  0.81920076  0.14929557    -0.08560
C969        C  0.66528301  0.80673108  0.15105794     0.04970
C970        C  0.69396879  0.78279140  0.12625407    -0.03590
Br971      Br  0.77931756  0.76180048  0.12593292    -0.03280
H972        H  0.68207853  0.75647565  0.08137441     0.08880
H973        H  0.57831731  0.83698404  0.16780420     0.06900
Br974      Br  0.48336897  0.83403082  0.12562623    -0.03710
C975        C  0.80258028  0.96817019  0.12934259    -0.10340
C976        C  0.83803339  0.95911889  0.15483382     0.05850
C977        C  0.90254114  0.96653187  0.15308368    -0.04110
C978        C  0.93046972  0.97330502  0.12561453    -0.08560
C979        C  0.89526214  0.97629180  0.09969483     0.04970
C980        C  0.83066960  0.97798561  0.10214577    -0.03590
Br981      Br  0.77827708  0.99149130  0.06951690    -0.03280
H982        H  0.75275861  0.96510161  0.13016637     0.08880
H983        H  0.98035508  0.97524136  0.12442961     0.06900
Br984      Br  0.95512784  0.96877727  0.18708699    -0.03710
C985        C  0.93852039  0.71971427  0.25692769    -0.10340
C986        C  0.94018446  0.77501247  0.26396959     0.05850
C987        C  0.99661541  0.79810965  0.27221289    -0.04110
C988        C  0.04995407  0.76608329  0.27323949    -0.08560
C989        C  0.04992557  0.71200818  0.26357177     0.04970
C990        C  0.99274490  0.68846995  0.25596539    -0.03590
Br991      Br  0.98503713  0.61457761  0.24371156    -0.03280
H992        H  0.89514646  0.70132953  0.25068596     0.08880
H993        H  0.09287020  0.78530972  0.27922196     0.06900
Br994      Br  0.00433966  0.87374697  0.28053882    -0.03710
C995        C  0.55768946  0.02278314  0.24602545    -0.10340
C996        C  0.55911083  0.97430881  0.26209597     0.05850
C997        C  0.50797571  0.96086843  0.27951850    -0.04110
C998        C  0.45622286  0.99509389  0.28022959    -0.08560
C999        C  0.45213496  0.04128543  0.26206116     0.04970
C1000       C  0.50501319  0.05593074  0.24553966    -0.03590
Br1001     Br  0.50919346  0.11919499  0.22098454    -0.03280
H1002       H  0.59739777  0.03423825  0.23300958     0.08880
H1003       H  0.41678155  0.98265470  0.29311608     0.06900
Br1004     Br  0.50379913  0.89403267  0.30047690    -0.03710
C1005       C  0.64377910  0.96272525  0.35946281    -0.10340
C1006       C  0.63970219  0.91148362  0.34646792     0.05850
C1007       C  0.60202496  0.87190163  0.35989478    -0.04110
C1008       C  0.57331040  0.88370056  0.38691129    -0.08560
C1009       C  0.58305488  0.93377299  0.40072853     0.04970
C1010       C  0.61723887  0.97384953  0.38622508    -0.03590
Br1011     Br  0.63030004  0.04560096  0.40122110    -0.03280
H1012       H  0.67063823  0.99457796  0.34946935     0.08880
H1013       H  0.54512079  0.85333689  0.39755285     0.06900
Br1014     Br  0.59057343  0.80105087  0.34360086    -0.03710
C1015       C  0.90967941  0.85333377  0.35150038    -0.10340
C1016       C  0.84706377  0.83955210  0.35043448     0.05850
C1017       C  0.81857483  0.82018166  0.37625860    -0.04110
C1018       C  0.85293487  0.81149301  0.40146384    -0.08560
C1019       C  0.91659597  0.82057359  0.40212753     0.04970
C1020       C  0.94491928  0.84361669  0.37696487    -0.03590
Br1021     Br  0.03004248  0.86432065  0.37582679    -0.03280
H1022       H  0.93160249  0.87020339  0.33227505     0.08880
H1023       H  0.82924618  0.79531521  0.42049112     0.06900
Br1024     Br  0.73260999  0.80421605  0.37978565    -0.03710
C1025       C  0.60350512  0.30502579  0.15037641    -0.10340
C1026       C  0.66745709  0.29634590  0.15143155     0.05850
C1027       C  0.69647714  0.27362288  0.12637138    -0.04110
C1028       C  0.66172267  0.26351669  0.10072160    -0.08560
C1029       C  0.59907670  0.27806226  0.09912353     0.04970
C1030       C  0.56990969  0.29780308  0.12477479    -0.03590
Br1031     Br  0.48430230  0.31859230  0.12718830    -0.03280
H1032       H  0.57918344  0.32118179  0.16919313     0.08880
H1033       H  0.68440657  0.24689735  0.08159002     0.06900
Br1034     Br  0.78291426  0.25705662  0.12508886    -0.03710
C1035       C  0.80311704  0.47056651  0.12606762    -0.10340
C1036       C  0.83768433  0.45735189  0.15145537     0.05850
C1037       C  0.90258069  0.46256154  0.15035803    -0.04110
C1038       C  0.93119557  0.47178512  0.12354368    -0.08560
C1039       C  0.89709900  0.48033807  0.09777008     0.04970
C1040       C  0.83244558  0.48350501  0.09946203    -0.03590
Br1041     Br  0.78236824  0.50099813  0.06604280    -0.03280
H1042       H  0.75321193  0.46867924  0.12650674     0.08880
H1043       H  0.98117518  0.47115541  0.12269662     0.06900
Br1044     Br  0.95650390  0.45667630  0.18389268    -0.03710
C1045       C  0.94599116  0.22722140  0.26441407    -0.10340
C1046       C  0.94688142  0.28412524  0.26325853     0.05850
C1047       C  0.00448916  0.31037588  0.26306278    -0.04110
C1048       C  0.05932850  0.27992993  0.26325599    -0.08560
C1049       C  0.05853230  0.22303377  0.26291475     0.04970
C1050       C  0.00087492  0.19673800  0.26384097    -0.03590
Br1051     Br  0.99425342  0.11938962  0.26450328    -0.03280
H1052       H  0.90223314  0.20616383  0.26452347     0.08880
H1053       H  0.10283844  0.30102258  0.26232634     0.06900
Br1054     Br  0.01098623  0.38770834  0.26264936    -0.03710
C1055       C  0.73932048  0.65658992  0.21599891    -0.10340
C1056       C  0.74105947  0.68246548  0.24332278     0.05850
C1057       C  0.75305950  0.65147743  0.26881778    -0.04110
C1058       C  0.76268150  0.59586308  0.26659255    -0.08560
C1059       C  0.75972101  0.56966666  0.23937402     0.04970
C1060       C  0.74761258  0.60067719  0.21385008    -0.03590
Br1061     Br  0.74362986  0.56986387  0.17531800    -0.03280
H1062       H  0.73226318  0.68019726  0.19615103     0.08880
H1063       H  0.77056392  0.57269908  0.28651179     0.06900
Br1064     Br  0.76076560  0.68232215  0.30722305    -0.03710
C1065       C  0.78939682  0.09539018  0.22647922    -0.10340
C1066       C  0.75788844  0.06894049  0.24891634     0.05850
C1067       C  0.72150888  0.09945637  0.26854034    -0.04110
C1068       C  0.71766522  0.15558889  0.26562253    -0.08560
C1069       C  0.75002408  0.18286266  0.24346204     0.04970
C1070       C  0.78669800  0.15161927  0.22366530    -0.03590
Br1071     Br  0.83562240  0.18052515  0.19207796    -0.03280
H1072       H  0.81597432  0.07196076  0.21084064     0.08880
H1073       H  0.69000427  0.17799186  0.28124005     0.06900
Br1074     Br  0.67469146  0.06738000  0.29956269    -0.03710
C1075       C  0.44511037  0.47736864  0.26221672    -0.10340
C1076       C  0.44625557  0.53432992  0.26177626     0.05850
C1077       C  0.50404523  0.56032265  0.26154400    -0.04110
C1078       C  0.55873756  0.52960764  0.26104806    -0.08560
C1079       C  0.55755008  0.47268821  0.25997949     0.04970
C1080       C  0.49977424  0.44663591  0.26098840    -0.03590
Br1081     Br  0.49267479  0.36931477  0.26135185    -0.03280
H1082       H  0.40124645  0.45648162  0.26245685     0.08880
H1083       H  0.60254598  0.55054797  0.26048229     0.06900
Br1084     Br  0.51105959  0.63760005  0.26238282    -0.03710
C1085       C  0.61739079  0.48227600  0.38448806    -0.10340
C1086       C  0.58139332  0.44108985  0.39643799     0.05850
C1087       C  0.57108700  0.39402978  0.37976206    -0.04110
C1088       C  0.60145076  0.38704897  0.35269245    -0.08560
C1089       C  0.64173816  0.42686434  0.34189094     0.04970
C1090       C  0.64606249  0.47652601  0.35740945    -0.03590
Br1091     Br  0.68885576  0.53997528  0.34366754    -0.03280
H1092       H  0.62275994  0.51997084  0.39629958     0.08880
H1093       H  0.59650606  0.34919520  0.34106628     0.06900
Br1094     Br  0.52089029  0.33647271  0.39398205    -0.03710
C1095       C  0.91453467  0.35046244  0.34786224    -0.10340
C1096       C  0.84995296  0.35008177  0.34843205     0.05850
C1097       C  0.81992209  0.34097683  0.37550351    -0.04110
C1098       C  0.85375044  0.32994488  0.40078434    -0.08560
C1099       C  0.91807314  0.32522902  0.40005657     0.04970
C1100       C  0.94887955  0.33766363  0.37325624    -0.03590
Br1101     Br  0.03668333  0.33444594  0.36851194    -0.03280
H1102       H  0.93826926  0.35715647  0.32722860     0.08880
H1103       H  0.82877698  0.32187472  0.42092202     0.06900
Br1104     Br  0.73224355  0.33942821  0.37984457    -0.03710
loop_ 
_geom_bond_atom_site_label_1 
_geom_bond_atom_site_label_2 
_geom_bond_distance 
_geom_bond_site_symmetry_2 
_ccdc_geom_bond_type 
O1            C9   1.317       .  A
O1          Co21   2.104       .  S
O2           C10   1.256       .  A
O2          Co22   1.952       .  S
O3           C11   1.257       .  A
O3          Co23   2.057       .  S
O4           C12   1.288       .  A
O4          Co24   2.036       .  S
O5           C11   1.246       .  A
O5          Co22   1.973       .  S
O6           C12   1.285       .  A
O6          Co21   1.969       .  S
O7           C10   1.269       .  A
O7          Co24   2.021       .  S
O8            C9   1.280       .  A
O8          Co23   1.876       .  S
C9         C1096   1.479       .  S
C10        C1036   1.485       .  S
C11        C1046   1.490       .  S
C12        C1059   1.474       .  S
O13          C26   1.255       .  A
O13         Co21   2.061       .  S
O14          C27   1.282       .  A
O14         Co22   2.017       .  S
O15          C28   1.322       .  A
O15         Co23   2.122       .  S
O16          C29   1.260       .  A
O16         Co24   1.955       .  S
O17          C29   1.271       .  A
O17         Co22   2.036       .  S
O18          C28   1.276       .  A
O18         Co21   1.855       .  S
O19          C26   1.246       .  A
O19         Co24   1.981       .  S
O20          C27   1.291       .  A
O20         Co23   1.987       .  S
Co21         O25   2.013       .  S
Co22         O25   2.018       .  S
Co23         O25   2.031       .  S
Co24         O25   2.021       .  S
C26        C1079   1.493       .  S
C27        C1069   1.489       .  S
C28        C1089   1.488       .  S
C29        C1026   1.494       .  S
O30          C38   1.289   1_565  A
O30         Co50   2.043       .  S
O31          C39   1.252       .  A
O31         Co51   2.043       .  S
O32          C40   1.313       .  A
O32         Co52   2.090       .  S
O33          C41   1.260       .  A
O33         Co53   1.965       .  S
O34          C40   1.278       .  A
O34         Co51   1.873       .  S
O35          C41   1.271       .  A
O35         Co50   2.019       .  S
O36          C39   1.245       .  A
O36         Co53   1.975       .  S
O37          C38   1.283   1_565  A
O37         Co52   1.970       .  S
C38        C1066   1.467       .  S
C39         C986   1.478       .  S
C40        C1016   1.477       .  S
C41         C976   1.489       .  S
O42          C55   1.259       .  A
O42         Co50   1.956       .  S
O43          C56   1.313       .  A
O43         Co51   2.101       .  S
O44          C57   1.251       .  A
O44         Co52   2.052       .  S
O45          C58   1.290       .  A
O45         Co53   2.040       .  S
O46          C58   1.282       .  A
O46         Co51   1.965       .  S
O47          C57   1.242       .  A
O47         Co50   1.976       .  S
O48          C55   1.268       .  A
O48         Co53   2.029       .  S
O49          C56   1.279       .  A
O49         Co52   1.855       .  S
Co50         O54   2.020       .  S
Co51         O54   2.037       .  S
Co52         O54   2.022       .  S
Co53         O54   2.033       .  S
C55         C969   1.493       .  S
C56        C1006   1.480       .  S
C57         C996   1.481       .  S
C58        C1056   1.469       .  S
O59          C67   1.289       .  A
O59         Co79   2.040       .  S
O60          C68   1.258       .  A
O60         Co80   2.061       .  S
O61          C69   1.312       .  A
O61         Co81   2.089       .  S
O62          C70   1.253       .  A
O62         Co82   1.947       .  S
O63          C69   1.282       .  A
O63         Co80   1.865       .  S
O64          C70   1.265       .  A
O64         Co79   2.028       .  S
O65          C68   1.242       .  A
O65         Co82   1.969       .  S
O66          C67   1.279       .  A
O66         Co81   1.957       .  S
C67         C939   1.456       .  S
C68         C999   1.498       .  S
C69         C946   1.472       .  S
C70         C906   1.478       .  S
O71          C84   1.255       .  A
O71         Co79   1.949       .  S
O72          C85   1.321       .  A
O72         Co80   2.112       .  S
O73          C86   1.256       .  A
O73         Co81   2.066       .  S
O74          C87   1.285   1_545  A
O74         Co82   2.028       .  S
O75          C87   1.291   1_545  A
O75         Co80   1.993       .  S
O76          C86   1.242       .  A
O76         Co79   1.974       .  S
O77          C84   1.272       .  A
O77         Co82   2.035       .  S
O78          C85   1.274       .  A
O78         Co81   1.840       .  S
Co79         O83   2.022       .  S
Co80         O83   2.018       .  S
Co81         O83   2.011       .  S
Co82         O83   2.005       .  S
C84         C919   1.466       .  S
C85         C956   1.479       .  S
C86        C1049   1.492       .  S
C87         C926   1.480       .  S
O88          C96   1.288       .  A
O88        Co108   2.025       .  S
O89          C97   1.255       .  A
O89        Co109   2.050       .  S
O90          C98   1.317       .  A
O90        Co110   2.107       .  S
O91          C99   1.255       .  A
O91        Co111   1.952       .  S
O92          C98   1.279       .  A
O92        Co109   1.867       .  S
O93          C99   1.269       .  A
O93        Co108   2.037       .  S
O94          C97   1.245       .  A
O94        Co111   1.977       .  S
O95          C96   1.282       .  A
O95        Co110   1.968       .  S
C96         C936   1.483       .  S
C97         C989   1.494       .  S
C98         C896   1.480       .  S
C99         C879   1.487       .  S
O100        C113   1.258       .  A
O100       Co108   1.949       .  S
O101        C114   1.320       .  A
O101       Co109   2.112       .  S
O102        C115   1.255       .  A
O102       Co110   2.052       .  S
O103        C116   1.285       .  A
O103       Co111   2.028       .  S
O104        C116   1.292       .  A
O104       Co109   1.989       .  S
O105        C115   1.245       .  A
O105       Co108   1.977       .  S
O106        C113   1.271       .  A
O106       Co111   2.039       .  S
O107        C114   1.279       .  A
O107       Co110   1.860       .  S
Co108       O112   2.018       .  S
Co109       O112   2.017       .  S
Co110       O112   2.021       .  S
Co111       O112   2.020       .  S
C113        C866   1.491       .  S
C114        C886   1.486       .  S
C115       C1076   1.492       .  S
C116        C929   1.480       .  S
O117        C125   1.273       .  A
O117       Co137   1.851       .  S
O118        C126   1.263       .  A
O118       Co138   2.000       .  S
O119        C127   1.275   1_554  A
O119       Co139   1.963       .  S
O120        C128   1.242   1_556  A
O120       Co140   1.972       .  S
O121        C127   1.284       .  A
O121       Co138   2.025       .  S
O122        C128   1.255       .  A
O122       Co137   2.064       .  S
O123        C126   1.259       .  A
O123       Co140   1.973       .  S
O124        C125   1.313       .  A
O124       Co139   2.098       .  S
C125        C909   1.473       .  S
C126        C819   1.468       .  S
C127        C836   1.479       .  S
C128        C826   1.488       .  S
O129        C142   1.279   1_554  A
O129       Co137   1.964       .  S
O130        C143   1.242   1_556  A
O130       Co138   1.961       .  S
O131        C144   1.275       .  A
O131       Co139   1.864       .  S
O132        C145   1.266       .  A
O132       Co140   2.015       .  S
O133        C145   1.258       .  A
O133       Co138   1.963       .  S
O134        C144   1.316       .  A
O134       Co137   2.113       .  S
O135        C142   1.289       .  A
O135       Co140   2.045       .  S
O136        C143   1.258       .  A
O136       Co139   2.065       .  S
Co137       O141   2.040   1_554  S
Co138       O141   2.028       .  S
Co139       O141   2.039   1_554  S
Co140       O141   2.036       .  S
C142        C846   1.479       .  S
C143        C856   1.484       .  S
C144       C1029   1.484       .  S
C145        C809   1.471       .  S
O146        C154   1.277       .  A
O146       Co166   1.859       .  S
O147        C155   1.265       .  A
O147       Co167   2.016       .  S
O148        C156   1.284   1_554  A
O148       Co168   1.972       .  S
O149        C157   1.245   1_556  A
O149       Co169   1.977       .  S
O150        C156   1.289       .  A
O150       Co167   2.045       .  S
O151        C157   1.255       .  A
O151       Co166   2.052       .  S
O152        C155   1.259       .  A
O152       Co169   1.953       .  S
O153        C154   1.317       .  A
O153       Co168   2.112       .  S
C154        C869   1.480       .  S
C155        C779   1.486       .  S
C156        C849   1.483       .  S
C157        C786   1.489       .  S
O158        C171   1.284   1_554  A
O158       Co166   1.970       .  S
O159        C172   1.240   1_556  A
O159       Co167   1.960       .  S
O160        C173   1.278       .  A
O160       Co168   1.860       .  S
O161        C174   1.271       .  A
O161       Co169   2.027       .  S
O162        C174   1.255       .  A
O162       Co167   1.951       .  S
O163        C173   1.318       .  A
O163       Co166   2.112       .  S
O164        C171   1.288       .  A
O164       Co169   2.036       .  S
O165        C172   1.254       .  A
O165       Co168   2.056       .  S
Co166       O170   2.027   1_554  S
Co167       O170   2.023       .  S
Co168       O170   2.031   1_554  S
Co169       O170   2.017       .  S
C171        C839   1.469       .  S
C172        C796   1.488       .  S
C173        C966   1.483       .  S
C174        C766   1.488       .  S
O175        C183   1.282       .  A
O175       Co195   1.883       .  S
O176        C184   1.271   1_455  A
O176       Co196   2.038       .  S
O177        C185   1.282   1_554  A
O177       Co197   1.971   1_655  S
O178        C186   1.238   1_556  A
O178       Co198   1.956       .  S
O179        C185   1.285   1_455  A
O179       Co196   2.026       .  S
O180        C186   1.255       .  A
O180       Co195   2.063       .  S
O181        C184   1.260       .  A
O181       Co198   1.957   1_545  S
O182        C183   1.314   1_545  A
O182       Co197   2.097   1_655  S
C183        C979   1.484       .  S
C184        C729   1.483       .  S
C185        C756   1.474       .  S
C186        C799   1.487       .  S
O187        C200   1.279   1_554  A
O187       Co195   1.957   1_455  S
O188        C201   1.244   1_556  A
O188       Co196   1.961       .  S
O189        C202   1.281       .  A
O189       Co197   1.865       .  S
O190        C203   1.264       .  A
O190       Co198   2.009   1_455  S
O191        C203   1.252       .  A
O191       Co196   1.953   1_565  S
O192        C202   1.311   1_565  A
O192       Co195   2.096   1_455  S
O193        C200   1.294   1_655  A
O193       Co198   2.057       .  S
O194        C201   1.256       .  A
O194       Co197   2.073       .  S
Co195       O199   2.046   1_654  S
Co196       O199   2.024   1_545  S
Co197       O199   2.031   1_544  S
Co198       O199   2.011   1_655  S
C200        C749   1.471       .  S
C201        C829   1.501       .  S
C202        C916   1.481       .  S
C203        C739   1.481       .  S
O204        C212   1.277       .  A
O204       Co224   1.865       .  S
O205        C213   1.264       .  A
O205       Co225   2.004   1_455  S
O206        C214   1.282   1_554  A
O206       Co226   1.973   1_455  S
O207        C215   1.244   1_556  A
O207       Co227   1.976       .  S
O208        C214   1.285   1_655  A
O208       Co225   2.026       .  S
O209        C215   1.253       .  A
O209       Co224   2.052       .  S
O210        C213   1.256       .  A
O210       Co227   1.963       .  S
O211        C212   1.315       .  A
O211       Co226   2.103   1_455  S
C212        C876   1.483       .  S
C213        C716   1.467       .  S
C214        C759   1.466       .  S
C215        C789   1.490       .  S
O216        C229   1.277   1_654  A
O216       Co224   1.960   1_655  S
O217        C230   1.247   1_556  A
O217       Co225   1.967       .  S
O218        C231   1.281       .  A
O218       Co226   1.870       .  S
O219        C232   1.270   1_455  A
O219       Co227   2.027       .  S
O220        C232   1.261       .  A
O220       Co225   1.973       .  S
O221        C231   1.312       .  A
O221       Co224   2.095   1_655  S
O222        C229   1.290       .  A
O222       Co227   2.045       .  S
O223        C230   1.254       .  A
O223       Co226   2.056       .  S
Co224       O228   2.030   1_554  S
Co225       O228   2.034   1_655  S
Co226       O228   2.041   1_654  S
Co227       O228   2.039       .  S
C229        C746   1.486       .  S
C230        C859   1.499       .  S
C231       C1039   1.472       .  S
C232        C709   1.481       .  S
O233        C241   1.318       .  A
O233       Co253   2.116       .  S
O234        C242   1.257       .  A
O234       Co254   1.951       .  S
O235        C243   1.256       .  A
O235       Co255   2.056       .  S
O236        C244   1.289       .  A
O236       Co256   2.033       .  S
O237        C243   1.243       .  A
O237       Co254   1.970       .  S
O238        C244   1.290       .  A
O238       Co253   1.980       .  S
O239        C242   1.266       .  A
O239       Co256   2.032       .  S
O240        C241   1.274       .  A
O240       Co255   1.861       .  S
C241        C726   1.495       .  S
C242        C659   1.488       .  S
C243        C666   1.481       .  S
C244        C689   1.485       .  S
O245        C258   1.251       .  A
O245       Co253   2.061       .  S
O246        C259   1.289   1_545  A
O246       Co254   2.037       .  S
O247        C260   1.312       .  A
O247       Co255   2.086       .  S
O248        C261   1.256       .  A
O248       Co256   1.952       .  S
O249        C261   1.271       .  A
O249       Co254   2.028       .  S
O250        C260   1.285       .  A
O250       Co253   1.872       .  S
O251        C258   1.245       .  A
O251       Co256   1.962       .  S
O252        C259   1.279   1_545  A
O252       Co255   1.967       .  S
Co253       O257   2.039       .  S
Co254       O257   2.011       .  S
Co255       O257   2.013       .  S
Co256       O257   2.014       .  S
C258        C699   1.495       .  S
C259        C676   1.483       .  S
C260        C806   1.473       .  S
C261        C649   1.488       .  S
O262        C270   1.309       .  A
O262       Co282   2.085       .  S
O263        C271   1.264       .  A
O263       Co283   1.965       .  S
O264        C272   1.254       .  A
O264       Co284   2.040       .  S
O265        C273   1.288       .  A
O265       Co285   2.038       .  S
O266        C272   1.243       .  A
O266       Co283   1.968       .  S
O267        C273   1.282       .  A
O267       Co282   1.966       .  S
O268        C271   1.266       .  A
O268       Co285   2.021       .  S
O269        C270   1.282       .  A
O269       Co284   1.890       .  S
C270        C769   1.477       .  S
C271        C609   1.495       .  S
C272        C636   1.493       .  S
C273        C686   1.466       .  S
O274        C287   1.252       .  A
O274       Co282   2.044       .  S
O275        C288   1.291       .  A
O275       Co283   2.051       .  S
O276        C289   1.310       .  A
O276       Co284   2.094       .  S
O277        C290   1.262       .  A
O277       Co285   1.963       .  S
O278        C290   1.265       .  A
O278       Co283   2.012       .  S
O279        C289   1.281       .  A
O279       Co282   1.884       .  S
O280        C287   1.244       .  A
O280       Co285   1.973       .  S
O281        C288   1.283       .  A
O281       Co284   1.963       .  S
Co282       O286   2.040       .  S
Co283       O286   2.025       .  S
Co284       O286   2.043       .  S
Co285       O286   2.038       .  S
C287        C626   1.483       .  S
C288        C679   1.470       .  S
C289        C706   1.476       .  S
C290        C616   1.482       .  S
O291        C299   1.312       .  A
O291       Co311   2.095       .  S
O292        C300   1.262       .  A
O292       Co312   1.981       .  S
O293        C301   1.254       .  A
O293       Co313   2.047       .  S
O294        C302   1.292       .  A
O294       Co314   2.045       .  S
O295        C301   1.247       .  A
O295       Co312   1.974       .  S
O296        C302   1.275       .  A
O296       Co311   1.956       .  S
O297        C300   1.262       .  A
O297       Co314   1.990       .  S
O298        C299   1.279       .  A
O298       Co313   1.877       .  S
C299        C719   1.474       .  S
C300        C579   1.462       .  S
C301        C629   1.487       .  S
C302        C599   1.484       .  S
O303        C316   1.257       .  A
O303       Co311   2.072       .  S
O304        C317   1.285       .  A
O304       Co312   2.034       .  S
O305        C318   1.317       .  A
O305       Co313   2.103       .  S
O306        C319   1.263       .  A
O306       Co314   1.968       .  S
O307        C319   1.269       .  A
O307       Co312   2.019       .  S
O308        C318   1.279       .  A
O308       Co311   1.872       .  S
O309        C316   1.241       .  A
O309       Co314   1.974       .  S
O310        C317   1.288       .  A
O310       Co313   1.978       .  S
Co311       O315   2.038       .  S
Co312       O315   2.033       .  S
Co313       O315   2.026       .  S
Co314       O315   2.019       .  S
C316        C696   1.493       .  S
C317        C586   1.491       .  S
C318        C816   1.473       .  S
C319        C569   1.473       .  S
O320        C328   1.316       .  A
O320       Co340   2.104       .  S
O321        C329   1.258       .  A
O321       Co341   1.956       .  S
O322        C330   1.252       .  A
O322       Co342   2.054       .  S
O323        C331   1.288   1_565  A
O323       Co343   2.041       .  S
O324        C330   1.238       .  A
O324       Co341   1.967       .  S
O325        C331   1.279   1_565  A
O325       Co340   1.961       .  S
O326        C329   1.266       .  A
O326       Co343   2.028       .  S
O327        C328   1.276       .  A
O327       Co342   1.860       .  S
C328        C776   1.472       .  S
C329        C549   1.487       .  S
C330        C639   1.480       .  S
C331        C596   1.467       .  S
O332        C345   1.256       .  A
O332       Co340   2.049       .  S
O333        C346   1.293       .  A
O333       Co341   2.057       .  S
O334        C347   1.315       .  A
O334       Co342   2.103       .  S
O335        C348   1.259       .  A
O335       Co343   1.966       .  S
O336        C348   1.267       .  A
O336       Co341   2.015       .  S
O337        C347   1.277       .  A
O337       Co340   1.853       .  S
O338        C345   1.244       .  A
O338       Co343   1.971       .  S
O339        C346   1.281       .  A
O339       Co342   1.961       .  S
Co340       O344   2.023       .  S
Co341       O344   2.013       .  S
Co342       O344   2.034       .  S
Co343       O344   2.033       .  S
C345        C669   1.488       .  S
C346        C589   1.468       .  S
C347        C736   1.474       .  S
C348        C559   1.469       .  S
O349        C357   1.264       .  A
O349       Co369   2.010       .  S
O350        C358   1.279       .  A
O350       Co370   1.852       .  S
O351        C359   1.239       .  A
O351       Co371   1.973       .  S
O352        C360   1.282       .  A
O352       Co372   1.974       .  S
O353        C359   1.253       .  A
O353       Co370   2.063       .  S
O354        C360   1.278       .  A
O354       Co369   2.015       .  S
O355        C358   1.316   1_565  A
O355       Co372   2.108       .  S
O356        C357   1.256       .  A
O356       Co371   1.954   1_565  S
C357       C1009   1.463       .  S
C358        C646   1.482       .  S
C359        C536   1.493       .  S
C360        C516   1.485       .  S
O361        C374   1.245       .  A
O361       Co369   1.965       .  S
O362        C375   1.277       .  A
O362       Co370   1.953       .  S
O363        C376   1.263       .  A
O363       Co371   2.016       .  S
O364        C377   1.276       .  A
O364       Co372   1.862       .  S
O365        C377   1.313   1_545  A
O365       Co370   2.096       .  S
O366        C376   1.256       .  A
O366       Co369   1.964   1_545  S
O367        C374   1.258       .  A
O367       Co372   2.061       .  S
O368        C375   1.291       .  A
O368       Co371   2.050       .  S
Co369       O373   2.034       .  S
Co370       O373   2.032   1_545  S
Co371       O373   2.021   1_545  S
Co372       O373   2.029       .  S
C374        C506   1.493       .  S
C375        C526   1.466       .  S
C376        C949   1.471       .  S
C377        C546   1.472       .  S
O378        C386   1.263       .  A
O378       Co398   2.019       .  S
O379        C387   1.279       .  A
O379       Co399   1.884       .  S
O380        C388   1.242       .  A
O380       Co400   1.969       .  S
O381        C389   1.276       .  A
O381       Co401   1.958       .  S
O382        C388   1.253       .  A
O382       Co399   2.055       .  S
O383        C389   1.285       .  A
O383       Co398   2.035       .  S
O384        C387   1.313       .  A
O384       Co401   2.106       .  S
O385        C386   1.259       .  A
O385       Co400   1.962       .  S
C386        C889   1.492       .  S
C387        C566   1.484       .  S
C388        C486   1.488       .  S
C389        C519   1.461       .  S
O390        C403   1.241       .  A
O390       Co398   1.961       .  S
O391        C404   1.287       .  A
O391       Co399   1.971       .  S
O392        C405   1.269       .  A
O392       Co400   2.022       .  S
O393        C406   1.277       .  A
O393       Co401   1.876       .  S
O394        C406   1.316       .  A
O394       Co399   2.111       .  S
O395        C405   1.262       .  A
O395       Co398   1.964       .  S
O396        C403   1.257       .  A
O396       Co401   2.061       .  S
O397        C404   1.286       .  A
O397       Co400   2.039       .  S
Co398       O402   2.036       .  S
Co399       O402   2.038       .  S
Co400       O402   2.027       .  S
Co401       O402   2.045       .  S
C403        C499   1.490       .  S
C404        C529   1.489       .  S
C405       C1086   1.476       .  S
C406        C606   1.489       .  S
O407        C415   1.263   1_455  A
O407       Co427   2.010       .  S
O408        C416   1.274       .  A
O408       Co428   1.867   1_655  S
O409        C417   1.245       .  A
O409       Co429   1.963       .  S
O410        C418   1.280       .  A
O410       Co430   1.953   1_655  S
O411        C417   1.257       .  A
O411       Co428   2.067   1_655  S
O412        C418   1.296   1_455  A
O412       Co427   2.065       .  S
O413        C416   1.314       .  A
O413       Co430   2.104   1_655  S
O414        C415   1.265       .  A
O414       Co429   1.972       .  S
C415       C1099   1.492       .  S
C416        C656   1.481       .  S
C417        C539   1.498       .  S
C418        C466   1.469       .  S
O419        C432   1.237       .  A
O419       Co427   1.965       .  S
O420        C433   1.276       .  A
O420       Co428   1.959       .  S
O421        C434   1.267   1_655  A
O421       Co429   2.016       .  S
O422        C435   1.279       .  A
O422       Co430   1.879       .  S
O423        C435   1.314       .  A
O423       Co428   2.102       .  S
O424        C434   1.259       .  A
O424       Co427   1.959       .  S
O425        C432   1.252       .  A
O425       Co430   2.055       .  S
O426        C433   1.289   1_655  A
O426       Co429   2.037       .  S
Co427       O431   2.011       .  S
Co428       O431   2.025       .  S
Co429       O431   2.026   1_655  S
Co430       O431   2.037       .  S
C432        C489   1.480       .  S
C433        C476   1.481       .  S
C434        C959   1.469       .  S
C435        C576   1.473       .  S
O436        C444   1.265   1_455  A
O436       Co456   2.022       .  S
O437        C445   1.283       .  A
O437       Co457   1.903       .  S
O438        C446   1.248       .  A
O438       Co458   1.972       .  S
O439        C447   1.281   1_655  A
O439       Co459   1.965   1_655  S
O440        C446   1.251       .  A
O440       Co457   2.043       .  S
O441        C447   1.290       .  A
O441       Co456   2.047       .  S
O442        C445   1.309       .  A
O442       Co459   2.083   1_655  S
O443        C444   1.258       .  A
O443       Co458   1.953       .  S
C444       C1019   1.485       .  S
C445        C619   1.476       .  S
C446        C496   1.498       .  S
C447        C479   1.467       .  S
O448        C461   1.245       .  A
O448       Co456   1.983       .  S
O449        C462   1.291   1_455  A
O449       Co457   1.986   1_455  S
O450        C463   1.272   1_655  A
O450       Co458   2.029       .  S
O451        C464   1.284       .  A
O451       Co459   1.860       .  S
O452        C464   1.312       .  A
O452       Co457   2.090   1_455  S
O453        C463   1.260       .  A
O453       Co456   1.965       .  S
O454        C461   1.251       .  A
O454       Co459   2.043       .  S
O455        C462   1.280       .  A
O455       Co458   2.012       .  S
Co456       O460   2.045       .  S
Co457       O460   2.044   1_655  S
Co458       O460   2.012   1_655  S
Co459       O460   2.020       .  S
C461        C509   1.484       .  S
C462        C469   1.483       .  S
C463        C899   1.472       .  S
C464        C556   1.478       .  S
C465        C466   1.395       .  A
C465        C470   1.398       .  A
C465        H472   1.084       .  S
C466        C467   1.410   1_655  A
C467        C468   1.394       .  A
C467       Br474   1.912       .  S
C468        C469   1.401   1_455  A
C468        H473   1.083       .  S
C469        C470   1.427       .  A
C470       Br471   1.927       .  S
C475        C476   1.404   1_655  A
C475        C480   1.390   1_545  A
C475        H482   1.080       .  S
C476        C477   1.417       .  A
C477        C478   1.400   1_545  A
C477       Br484   1.921       .  S
C478        C479   1.402       .  A
C478        H483   1.084       .  S
C479        C480   1.401   1_455  A
C480       Br481   1.903       .  S
C485        C486   1.410       .  A
C485        C490   1.400       .  A
C485        H492   1.083       .  S
C486        C487   1.413       .  A
C487        C488   1.403       .  A
C487       Br494   1.920       .  S
C488        C489   1.406       .  A
C488        H493   1.084       .  S
C489        C490   1.406       .  A
C490       Br491   1.918       .  S
C495        C496   1.402       .  A
C495        C500   1.398       .  A
C495        H502   1.083       .  S
C496        C497   1.423       .  A
C497        C498   1.408       .  A
C497       Br504   1.922       .  S
C498        C499   1.401       .  A
C498        H503   1.080       .  S
C499        C500   1.415       .  A
C500       Br501   1.912       .  S
C505        C506   1.412       .  A
C505        C510   1.406       .  A
C505        H512   1.083       .  S
C506        C507   1.414       .  A
C507        C508   1.402       .  A
C507       Br514   1.921   1_565  S
C508        C509   1.406       .  A
C508        H513   1.084       .  S
C509        C510   1.406       .  A
C510       Br511   1.917       .  S
C515        C516   1.404       .  A
C515        C520   1.395       .  A
C515        H522   1.083       .  S
C516        C517   1.427       .  A
C517        C518   1.396       .  A
C517       Br524   1.927       .  S
C518        C519   1.393       .  A
C518        H523   1.084       .  S
C519        C520   1.409       .  A
C520       Br521   1.918       .  S
C525        C526   1.394       .  A
C525        C530   1.399       .  A
C525        H532   1.083       .  S
C526        C527   1.409       .  A
C527        C528   1.393       .  A
C527       Br534   1.918       .  S
C528        C529   1.405       .  A
C528        H533   1.083       .  S
C529        C530   1.427       .  A
C530       Br531   1.923       .  S
C535        C536   1.402       .  A
C535        C540   1.408       .  A
C535        H542   1.077       .  S
C536        C537   1.413       .  A
C537        C538   1.399       .  A
C537       Br544   1.909       .  S
C538        C539   1.404       .  A
C538        H543   1.083       .  S
C539        C540   1.419       .  A
C540       Br541   1.920       .  S
C545        C546   1.401       .  A
C545        C550   1.403       .  A
C545        H552   1.084   1_565  S
C546        C547   1.414       .  A
C547        C548   1.385       .  A
C547       Br554   1.927       .  S
C548        C549   1.403       .  A
C548        H553   1.083       .  S
C549        C550   1.420       .  A
C550       Br551   1.915   1_565  S
C555        C556   1.401       .  A
C555        C560   1.381       .  A
C555        H562   1.084       .  S
C556        C557   1.415       .  A
C557        C558   1.411       .  A
C557       Br564   1.917       .  S
C558        C559   1.407       .  A
C558        H563   1.083       .  S
C559        C560   1.404       .  A
C560       Br561   1.914       .  S
C565        C566   1.405       .  A
C565        C570   1.406       .  A
C565        H572   1.083       .  S
C566        C567   1.415       .  A
C567        C568   1.394       .  A
C567       Br574   1.924       .  S
C568        C569   1.399       .  A
C568        H573   1.084       .  S
C569        C570   1.407       .  A
C570       Br571   1.910       .  S
C575        C576   1.404       .  A
C575        C580   1.406       .  A
C575        H582   1.070       .  S
C576        C577   1.410       .  A
C577        C578   1.385       .  A
C577       Br584   1.905       .  S
C578        C579   1.394       .  A
C578        H583   1.081       .  S
C579        C580   1.404       .  A
C580       Br581   1.912       .  S
C585        C586   1.404       .  A
C585        C590   1.395       .  A
C585        H592   1.083       .  S
C586        C587   1.428       .  A
C587        C588   1.400       .  A
C587       Br594   1.926       .  S
C588        C589   1.395       .  A
C588        H593   1.084       .  S
C589        C590   1.409       .  A
C590       Br591   1.917       .  S
C595        C596   1.403       .  A
C595        C600   1.403       .  A
C595        H602   1.084       .  S
C596        C597   1.397       .  A
C597        C598   1.390       .  A
C597       Br604   1.905       .  S
C598        C599   1.405       .  A
C598        H603   1.083       .  S
C599        C600   1.418       .  A
C600       Br601   1.921       .  S
C605        C606   1.405       .  A
C605        C610   1.415       .  A
C605        H612   1.080       .  S
C606        C607   1.413       .  A
C607        C608   1.385       .  A
C607       Br614   1.906       .  S
C608        C609   1.397       .  A
C608        H613   1.083       .  S
C609        C610   1.423       .  A
C610       Br611   1.919       .  S
C615        C616   1.398       .  A
C615        C620   1.390       .  A
C615        H622   1.084       .  S
C616        C617   1.419       .  A
C617        C618   1.404       .  A
C617       Br624   1.920       .  S
C618        C619   1.400       .  A
C618        H623   1.081       .  S
C619        C620   1.408       .  A
C620       Br621   1.903       .  S
C625        C626   1.408       .  A
C625        C630   1.402       .  A
C625        H632   1.083       .  S
C626        C627   1.406   1_655  A
C627        C628   1.403       .  A
C627       Br634   1.918       .  S
C628        C629   1.410       .  A
C628        H633   1.084       .  S
C629        C630   1.409   1_455  A
C630       Br631   1.919       .  S
C635        C636   1.411       .  A
C635        C640   1.401       .  A
C635        H642   1.083       .  S
C636        C637   1.415       .  A
C637        C638   1.403       .  A
C637       Br644   1.922       .  S
C638        C639   1.405       .  A
C638        H643   1.083       .  S
C639        C640   1.406       .  A
C640       Br641   1.918       .  S
C645        C646   1.404       .  A
C645        C650   1.386       .  A
C645        H652   1.084       .  S
C646        C647   1.406       .  A
C647        C648   1.409       .  A
C647       Br654   1.911   1_545  S
C648        C649   1.414       .  A
C648        H653   1.083       .  S
C649        C650   1.416       .  A
C650       Br651   1.928       .  S
C655        C656   1.406       .  A
C655        C660   1.409       .  A
C655        H662   1.083       .  S
C656        C657   1.415       .  A
C657        C658   1.383       .  A
C657       Br664   1.923   1_655  S
C658        C659   1.401       .  A
C658        H663   1.083       .  S
C659        C660   1.418       .  A
C660       Br661   1.916       .  S
C665        C666   1.405   1_565  A
C665        C670   1.402       .  A
C665        H672   1.084       .  S
C666        C667   1.408       .  A
C667        C668   1.402   1_655  A
C667       Br674   1.919   1_655  S
C668        C669   1.409   1_545  A
C668        H673   1.084       .  S
C669        C670   1.413   1_455  A
C670       Br671   1.920       .  S
C675        C676   1.408       .  A
C675        C680   1.396       .  A
C675        H682   1.084       .  S
C676        C677   1.415       .  A
C677        C678   1.398       .  A
C677       Br684   1.918       .  S
C678        C679   1.402       .  A
C678        H683   1.084       .  S
C679        C680   1.404       .  A
C680       Br681   1.909       .  S
C685        C686   1.394       .  A
C685        C690   1.394       .  A
C685        H692   1.085       .  S
C686        C687   1.409       .  A
C687        C688   1.399       .  A
C687       Br694   1.915       .  S
C688        C689   1.405       .  A
C688        H693   1.083       .  S
C689        C690   1.420       .  A
C690       Br691   1.913       .  S
C695        C696   1.405       .  A
C695        C700   1.413       .  A
C695        H702   1.083       .  S
C696        C697   1.410       .  A
C697        C698   1.391       .  A
C697       Br704   1.890       .  S
C698        C699   1.397       .  A
C698        H703   1.084       .  S
C699        C700   1.422       .  A
C700       Br701   1.916       .  S
C705        C706   1.395       .  A
C705        C710   1.387       .  A
C705        H712   1.082       .  S
C706        C707   1.411       .  A
C707        C708   1.412       .  A
C707       Br714   1.916       .  S
C708        C709   1.408       .  A
C708        H713   1.083       .  S
C709        C710   1.412       .  A
C710       Br711   1.911       .  S
C715        C716   1.398       .  A
C715        C720   1.389       .  A
C715        H722   1.083       .  S
C716        C717   1.406       .  A
C717        C718   1.407       .  A
C717       Br724   1.915       .  S
C718        C719   1.408       .  A
C718        H723   1.083       .  S
C719        C720   1.411       .  A
C720       Br721   1.924       .  S
C725        C726   1.412       .  A
C725        C730   1.415       .  A
C725        H732   1.083       .  S
C726        C727   1.423       .  A
C727        C728   1.385       .  A
C727       Br734   1.926   1_545  S
C728        C729   1.395       .  A
C728        H733   1.085   1_545  S
C729        C730   1.411       .  A
C730       Br731   1.916       .  S
C735        C736   1.405       .  A
C735        C740   1.385       .  A
C735        H742   1.084       .  S
C736        C737   1.405       .  A
C737        C738   1.403       .  A
C737       Br744   1.912       .  S
C738        C739   1.412       .  A
C738        H743   1.083       .  S
C739        C740   1.413       .  A
C740       Br741   1.927       .  S
C745        C746   1.408       .  A
C745        C750   1.396       .  A
C745        H752   1.083       .  S
C746        C747   1.419   1_456  A
C747        C748   1.400       .  A
C747       Br754   1.923       .  S
C748        C749   1.402   1_654  A
C748        H753   1.084       .  S
C749        C750   1.402       .  A
C750       Br751   1.907       .  S
C755        C756   1.412   1_455  A
C755        C760   1.396       .  A
C755        H762   1.083       .  S
C756        C757   1.404   1_556  A
C757        C758   1.397       .  A
C757       Br764   1.919       .  S
C758        C759   1.409   1_654  A
C758        H763   1.084       .  S
C759        C760   1.399       .  A
C760       Br761   1.919       .  S
C765        C766   1.410       .  A
C765        C770   1.403       .  A
C765        H772   1.083       .  S
C766        C767   1.415       .  A
C767        C768   1.394       .  A
C767       Br774   1.924       .  S
C768        C769   1.401       .  A
C768        H773   1.082       .  S
C769        C770   1.406       .  A
C770       Br771   1.907       .  S
C775        C776   1.400       .  A
C775        C780   1.405       .  A
C775        H782   1.080       .  S
C776        C777   1.414       .  A
C777        C778   1.384       .  A
C777       Br784   1.926       .  S
C778        C779   1.402       .  A
C778        H783   1.084       .  S
C779        C780   1.421       .  A
C780       Br781   1.922       .  S
C785        C786   1.408       .  A
C785        C790   1.405       .  A
C785        H792   1.083       .  S
C786        C787   1.410       .  A
C787        C788   1.404       .  A
C787       Br794   1.919       .  S
C788        C789   1.409       .  A
C788        H793   1.084       .  S
C789        C790   1.411       .  A
C790       Br791   1.919       .  S
C795        C796   1.403       .  A
C795        C800   1.400       .  A
C795        H802   1.084       .  S
C796        C797   1.414       .  A
C797        C798   1.398       .  A
C797       Br804   1.903       .  S
C798        C799   1.396       .  A
C798        H803   1.082       .  S
C799        C800   1.412       .  A
C800       Br801   1.901   1_554  S
C805        C806   1.397       .  A
C805        C810   1.385       .  A
C805        H812   1.083       .  S
C806        C807   1.411       .  A
C807        C808   1.408       .  A
C807       Br814   1.914       .  S
C808        C809   1.405       .  A
C808        H813   1.083       .  S
C809        C810   1.409       .  A
C810       Br811   1.914       .  S
C815        C816   1.408       .  A
C815        C820   1.408       .  A
C815        H822   1.083       .  S
C816        C817   1.412       .  A
C817        C818   1.388       .  A
C817       Br824   1.919       .  S
C818        C819   1.397       .  A
C818        H823   1.082       .  S
C819        C820   1.406       .  A
C820       Br821   1.915       .  S
C825        C826   1.404       .  A
C825        C830   1.412       .  A
C825        H832   1.083       .  S
C826        C827   1.411   1_554  A
C827        C828   1.394       .  A
C827       Br834   1.910       .  S
C828        C829   1.404   1_556  A
C828        H833   1.082       .  S
C829        C830   1.422       .  A
C830       Br831   1.916       .  S
C835        C836   1.405       .  A
C835        C840   1.389       .  A
C835        H842   1.083       .  S
C836        C837   1.415   1_556  A
C837        C838   1.403       .  A
C837       Br844   1.921       .  S
C838        C839   1.405   1_554  A
C838        H843   1.084       .  S
C839        C840   1.403       .  A
C840       Br841   1.907       .  S
C845        C846   1.401       .  A
C845        C850   1.399   1_545  A
C845        H852   1.083       .  S
C846        C847   1.415   1_556  A
C847        C848   1.400   1_545  A
C847       Br854   1.914       .  S
C848        C849   1.402   1_554  A
C848        H853   1.084       .  S
C849        C850   1.413       .  A
C850       Br851   1.909       .  S
C855        C856   1.401       .  A
C855        C860   1.407       .  A
C855        H862   1.081       .  S
C856        C857   1.410   1_554  A
C857        C858   1.399       .  A
C857       Br864   1.917       .  S
C858        C859   1.406   1_556  A
C858        H863   1.083       .  S
C859        C860   1.422       .  A
C860       Br861   1.919       .  S
C865        C866   1.403       .  A
C865        C870   1.384       .  A
C865        H872   1.083       .  S
C866        C867   1.419       .  A
C867        C868   1.412       .  A
C867       Br874   1.918       .  S
C868        C869   1.406       .  A
C868        H873   1.083       .  S
C869        C870   1.414       .  A
C870       Br871   1.928       .  S
C875        C876   1.408       .  A
C875        C880   1.411       .  A
C875        H882   1.083       .  S
C876        C877   1.417       .  A
C877        C878   1.385       .  A
C877       Br884   1.930   1_455  S
C878        C879   1.402       .  A
C878        H883   1.083       .  S
C879        C880   1.415       .  A
C880       Br881   1.918       .  S
C885        C886   1.405       .  A
C885        C890   1.414       .  A
C885        H892   1.083       .  S
C886        C887   1.415       .  A
C887        C888   1.383       .  A
C887       Br894   1.915       .  S
C888        C889   1.398       .  A
C888        H893   1.084       .  S
C889        C890   1.422       .  A
C890       Br891   1.919       .  S
C895        C896   1.405       .  A
C895        C900   1.406       .  A
C895        H902   1.083       .  S
C896        C897   1.416       .  A
C897        C898   1.390       .  A
C897       Br904   1.925       .  S
C898        C899   1.396       .  A
C898        H903   1.081       .  S
C899        C900   1.407       .  A
C900       Br901   1.908       .  S
C905        C906   1.400       .  A
C905        C910   1.380       .  A
C905        H912   1.083       .  S
C906        C907   1.414       .  A
C907        C908   1.407       .  A
C907       Br914   1.916       .  S
C908        C909   1.405       .  A
C908        H913   1.083       .  S
C909        C910   1.416       .  A
C910       Br911   1.931       .  S
C915        C916   1.403       .  A
C915        C920   1.380       .  A
C915        H922   1.083       .  S
C916        C917   1.416       .  A
C917        C918   1.409       .  A
C917       Br924   1.918   1_545  S
C918        C919   1.404       .  A
C918        H923   1.083   1_545  S
C919        C920   1.407       .  A
C920       Br921   1.924       .  S
C925        C926   1.396       .  A
C925        C930   1.401       .  A
C925        H932   1.084       .  S
C926        C927   1.419       .  A
C927        C928   1.395       .  A
C927       Br934   1.909       .  S
C928        C929   1.393       .  A
C928        H933   1.084       .  S
C929        C930   1.423       .  A
C930       Br931   1.917       .  S
C935        C936   1.415       .  A
C935        C940   1.392       .  A
C935        H942   1.083       .  S
C936        C937   1.416       .  A
C937        C938   1.396       .  A
C937       Br944   1.923       .  S
C938        C939   1.400       .  A
C938        H943   1.084       .  S
C939        C940   1.396       .  A
C940       Br941   1.914       .  S
C945        C946   1.397       .  A
C945        C950   1.382       .  A
C945        H952   1.084       .  S
C946        C947   1.412       .  A
C947        C948   1.409       .  A
C947       Br954   1.916       .  S
C948        C949   1.406       .  A
C948        H953   1.083       .  S
C949        C950   1.410       .  A
C950       Br951   1.914   1_545  S
C955        C956   1.407       .  A
C955        C960   1.407       .  A
C955        H962   1.083       .  S
C956        C957   1.422       .  A
C957        C958   1.382       .  A
C957       Br964   1.932       .  S
C958        C959   1.393       .  A
C958        H963   1.085       .  S
C959        C960   1.410       .  A
C960       Br961   1.911       .  S
C965        C966   1.406       .  A
C965        C970   1.412       .  A
C965        H972   1.083       .  S
C966        C967   1.415       .  A
C967        C968   1.386       .  A
C967       Br974   1.928       .  S
C968        C969   1.403       .  A
C968        H973   1.083       .  S
C969        C970   1.420       .  A
C970       Br971   1.919       .  S
C975        C976   1.407       .  A
C975        C980   1.401       .  A
C975        H982   1.083       .  S
C976        C977   1.413       .  A
C977        C978   1.400       .  A
C977       Br984   1.922       .  S
C978        C979   1.406       .  A
C978        H983   1.084       .  S
C979        C980   1.405       .  A
C980       Br981   1.896       .  S
C985        C986   1.406       .  A
C985        C990   1.405       .  A
C985        H992   1.084       .  S
C986        C987   1.403       .  A
C987        C988   1.399   1_655  A
C987       Br994   1.918   1_655  S
C988        C989   1.409       .  A
C988        H993   1.081       .  S
C989        C990   1.414   1_455  A
C990       Br991   1.920       .  S
C995        C996   1.402   1_545  A
C995       C1000   1.403       .  A
C995       H1002   1.084       .  S
C996        C997   1.404       .  A
C997        C998   1.403       .  A
C997      Br1004   1.908       .  S
C998        C999   1.410   1_565  A
C998       H1003   1.082       .  S
C999       C1000   1.419       .  A
C1000     Br1001   1.922       .  S
C1005      C1006   1.404       .  A
C1005      C1010   1.376       .  A
C1005      H1012   1.081       .  S
C1006      C1007   1.415       .  A
C1007      C1008   1.410       .  A
C1007     Br1014   1.922       .  S
C1008      C1009   1.408       .  A
C1008      H1013   1.083       .  S
C1009      C1010   1.403       .  A
C1010     Br1011   1.925   1_565  S
C1015      C1016   1.401       .  A
C1015      C1020   1.406       .  A
C1015      H1022   1.080       .  S
C1016      C1017   1.412       .  A
C1017      C1018   1.382       .  A
C1017     Br1024   1.913       .  S
C1018      C1019   1.399       .  A
C1018      H1023   1.084       .  S
C1019      C1020   1.419       .  A
C1020     Br1021   1.917   1_655  S
C1025      C1026   1.402       .  A
C1025      C1030   1.386       .  A
C1025      H1032   1.083       .  S
C1026      C1027   1.420       .  A
C1027      C1028   1.412       .  A
C1027     Br1034   1.917       .  S
C1028      C1029   1.405       .  A
C1028      H1033   1.082       .  S
C1029      C1030   1.416       .  A
C1030     Br1031   1.926       .  S
C1035      C1036   1.413       .  A
C1035      C1040   1.405       .  A
C1035      H1042   1.083       .  S
C1036      C1037   1.414       .  A
C1037      C1038   1.388       .  A
C1037     Br1044   1.926       .  S
C1038      C1039   1.400       .  A
C1038      H1043   1.084       .  S
C1039      C1040   1.405       .  A
C1040     Br1041   1.914       .  S
C1045      C1046   1.408       .  A
C1045      C1050   1.406   1_655  A
C1045      H1052   1.084       .  S
C1046      C1047   1.410   1_655  A
C1047      C1048   1.404       .  A
C1047     Br1054   1.918       .  S
C1048      C1049   1.407       .  A
C1048      H1053   1.080       .  S
C1049      C1050   1.412       .  A
C1050     Br1051   1.919   1_455  S
C1055      C1056   1.401       .  A
C1055      C1060   1.397       .  A
C1055      H1062   1.084       .  S
C1056      C1057   1.412       .  A
C1057      C1058   1.394       .  A
C1057     Br1064   1.917       .  S
C1058      C1059   1.402       .  A
C1058      H1063   1.084       .  S
C1059      C1060   1.413       .  A
C1060     Br1061   1.917       .  S
C1065      C1066   1.392       .  A
C1065      C1070   1.397       .  A
C1065      H1072   1.084       .  S
C1066      C1067   1.411       .  A
C1067      C1068   1.396       .  A
C1067     Br1074   1.912       .  S
C1068      C1069   1.402       .  A
C1068      H1073   1.083       .  S
C1069      C1070   1.429       .  A
C1070     Br1071   1.925       .  S
C1075      C1076   1.409       .  A
C1075      C1080   1.406       .  A
C1075      H1082   1.084       .  S
C1076      C1077   1.410       .  A
C1077      C1078   1.405       .  A
C1077     Br1084   1.918       .  S
C1078      C1079   1.409       .  A
C1078      H1083   1.084       .  S
C1079      C1080   1.411       .  A
C1080     Br1081   1.919       .  S
C1085      C1086   1.395       .  A
C1085      C1090   1.389       .  A
C1085      H1092   1.084       .  S
C1086      C1087   1.410       .  A
C1087      C1088   1.408       .  A
C1087     Br1094   1.907       .  S
C1088      C1089   1.407       .  A
C1088      H1093   1.083       .  S
C1089      C1090   1.422       .  A
C1090     Br1091   1.929       .  S
C1095      C1096   1.400       .  A
C1095      C1100   1.408       .  A
C1095      H1102   1.084       .  S
C1096      C1097   1.412       .  A
C1097      C1098   1.389       .  A
C1097     Br1104   1.911       .  S
C1098      C1099   1.399       .  A
C1098      H1103   1.083       .  S
C1099      C1100   1.425       .  A
C1100     Br1101   1.917   1_655  S
