geometry optimzed in LAMMPS
_audit_creation_date              2020-11-30 
_audit_creation_method            'lammps2cif' 
_symmetry_space_group_name_H-M    'P1' 
_symmetry_Int_Tables_number       1 
_symmetry_cell_setting            triclinic 
loop_ 
_symmetry_equiv_pos_as_xyz 
  x,y,z 
_cell_length_a                    52.49881334 
_cell_length_b                    52.57476869300762 
_cell_length_c                    51.08422253372086 
_cell_angle_alpha                 89.88359733758504 
_cell_angle_beta                  89.68652970630072 
_cell_angle_gamma                 90.03562542692198 
loop_ 
_atom_site_label 
_atom_site_type_symbol 
_atom_site_fract_x 
_atom_site_fract_y 
_atom_site_fract_z 
_atom_site_charge 
In1        In  0.27580528  0.42708469  0.77899045     1.36900
C2          C  0.31980759  0.40227062  0.77533696     0.77600
O3          O  0.27952454  0.43825242  0.73699362    -0.60800
O4          O  0.28494818  0.46686506  0.76554611    -0.51700
C5          C  0.23051210  0.40612808  0.76968261     0.70300
O6          O  0.25043000  0.39332145  0.77353635    -0.46600
C7          C  0.26758852  0.43654610  0.82943002     0.75000
O8          O  0.29941320  0.39429706  0.76531954    -0.58500
O9          O  0.26625447  0.45358901  0.81205774    -0.48600
O10         O  0.31755834  0.42298720  0.78755172    -0.54900
C11         C  0.28450167  0.46124961  0.74153832     0.85200
O12         O  0.23398037  0.42983616  0.76982190    -0.56800
O13         O  0.27403569  0.41500857  0.82095228    -0.60100
C14         C  0.46552723  0.28085795  0.77776864    -0.10800
C15         C  0.45303400  0.25752139  0.77582704    -0.04700
C16         C  0.46647062  0.23459173  0.77522372    -0.10800
C17         C  0.49328501  0.23474994  0.77731633     0.10100
C18         C  0.50628141  0.25837846  0.77893782    -0.02600
C19         C  0.49239088  0.28155901  0.77891748     0.09900
C20         C  0.50567215  0.30474372  0.78018669    -0.12600
C21         C  0.53218817  0.30520797  0.78108488    -0.12600
C22         C  0.54626704  0.28249724  0.78104998     0.09900
C23         C  0.53323440  0.25884392  0.78029545    -0.02600
C24         C  0.50742721  0.21204442  0.77740006    -0.12700
C25         C  0.53391794  0.21249464  0.77921966    -0.12700
C26         C  0.54715160  0.23567260  0.78054016     0.10100
C27         C  0.57398784  0.23646185  0.78215318    -0.10800
C28         C  0.58649372  0.25984983  0.78226580    -0.04700
C29         C  0.57313561  0.28270757  0.78126029    -0.10800
H30         H  0.49564369  0.32273184  0.78032402     0.07400
H31         H  0.54162808  0.32351024  0.78179269     0.07400
H32         H  0.49809104  0.19372912  0.77611841     0.07600
H33         H  0.54399901  0.19453532  0.77938911     0.07600
H34         H  0.43240440  0.25720439  0.77450362     0.04000
H35         H  0.60717285  0.26026110  0.78260462     0.04000
C36         C  0.08244201  0.25350164  0.72698794    -0.10800
C37         C  0.09393267  0.27709414  0.73107271    -0.04700
C38         C  0.07997460  0.29964746  0.73043074    -0.10800
C39         C  0.05346977  0.29883766  0.72599711     0.10100
C40         C  0.04136515  0.27493833  0.72245805    -0.02600
C41         C  0.05586877  0.25214869  0.72297469     0.09900
C42         C  0.04350055  0.22873730  0.71905386    -0.12600
C43         C  0.01723935  0.22760608  0.71575055    -0.12600
C44         C  0.00252137  0.24987589  0.71558642     0.09900
C45         C  0.01471658  0.27382433  0.71831542    -0.02600
C46         C  0.03885806  0.32117872  0.72476019    -0.12700
C47         C  0.01269958  0.32009841  0.72029466    -0.12700
C48         C  0.00025282  0.29661777  0.71728157     0.10100
C49         C  0.97369860  0.29520779  0.71315625    -0.10800
C50         C  0.96196156  0.27147347  0.71107621    -0.04700
C51         C  0.97582835  0.24889318  0.71281353    -0.10800
H52         H  0.05396054  0.21103658  0.71861189     0.07400
H53         H  0.00853363  0.20911094  0.71311191     0.07400
H54         H  0.04761264  0.33968606  0.72710884     0.07600
H55         H  0.00226477  0.33781851  0.71932146     0.07600
H56         H  0.11429599  0.27795057  0.73458515     0.04000
H57         H  0.94139860  0.27055043  0.70911165     0.04000
In58       In  0.26963088  0.10524161  0.74271192     1.36900
C59         C  0.31456678  0.12498294  0.75601892     0.77600
O60         O  0.26298401  0.09382315  0.78467196    -0.60800
O61         O  0.25694948  0.06624993  0.75529280    -0.51700
C62         C  0.22619092  0.13113574  0.74207511     0.70300
O63         O  0.24616341  0.13949695  0.75259565    -0.46600
C64         C  0.28055046  0.09539328  0.69261788     0.75000
O65         O  0.29475242  0.13813953  0.75280076    -0.58500
O66         O  0.28025781  0.07844308  0.71012589    -0.48600
O67         O  0.31107702  0.10144790  0.75306255    -0.54900
C68         C  0.25590424  0.07154185  0.77933999     0.85200
O69         O  0.22869586  0.10966140  0.73143674    -0.56800
O70         O  0.27463661  0.11723007  0.70075209    -0.60100
In71       In  0.77722209  0.12245356  0.74247901     1.36900
C72         C  0.82250547  0.14416793  0.73640961     0.77600
O73         O  0.78975028  0.11010868  0.78223742    -0.60800
O74         O  0.77819644  0.08188840  0.75518391    -0.51700
C75         C  0.73380321  0.14096402  0.76145339     0.70300
O76         O  0.75432998  0.15351946  0.76164607    -0.46600
C77         C  0.76562187  0.11700210  0.69228221     0.75000
O78         O  0.80344463  0.15598091  0.74537228    -0.58500
O79         O  0.77282843  0.09865942  0.70638729    -0.48600
O80         O  0.81841295  0.12110110  0.73130956    -0.54900
C81         C  0.78660977  0.08674275  0.77768625     0.85200
O82         O  0.73578799  0.11902857  0.75179104    -0.56800
O83         O  0.76449026  0.13797798  0.70407747    -0.60100
In84       In  0.77003364  0.41396540  0.74935895     1.36900
C85         C  0.78028382  0.42152035  0.79951921     0.77600
O86         O  0.72881380  0.41382641  0.76009325    -0.60800
O87         O  0.74544698  0.37897611  0.74799068    -0.51700
C88         C  0.75771019  0.44762219  0.71232582     0.70300
O89         O  0.76407713  0.45396041  0.73515913    -0.46600
C90         C  0.81466544  0.39434991  0.73446958     0.75000
O91         O  0.77686666  0.43973419  0.78375772    -0.58500
O92         O  0.79366731  0.38330776  0.73081234    -0.48600
O93         O  0.77778734  0.39974659  0.78961680    -0.54900
C94         C  0.72568437  0.39048180  0.75567668     0.85200
O95         O  0.75877861  0.42399501  0.70825054    -0.56800
O96         O  0.81256416  0.41620538  0.74437244    -0.60100
In97       In  0.65016907  0.56609792  0.52977197     1.36900
C98         C  0.63032376  0.61165757  0.53979329     0.77600
O99         O  0.65179107  0.55749069  0.57278400    -0.60800
O100        O  0.68615708  0.55665310  0.55095510    -0.51700
C101        C  0.62660260  0.52239369  0.51967996     0.70300
O102        O  0.61483900  0.54207697  0.52707700    -0.46600
C103        C  0.66698375  0.57604385  0.48176220     0.75000
O104        O  0.61705462  0.59172282  0.53808309    -0.58500
O105        O  0.68195212  0.57319574  0.50080824    -0.48600
O106        O  0.65395096  0.60800326  0.53718478    -0.54900
C107        C  0.67547320  0.55342352  0.57287712     0.85200
O108        O  0.65039806  0.52509613  0.51803882    -0.56800
O109        O  0.64377700  0.57369867  0.48767102    -0.60100
In110      In  0.35521814  0.56981775  0.53621792     1.36900
C111        C  0.37862492  0.61467932  0.54016077     0.77600
O112        O  0.34932733  0.57682151  0.49364882    -0.60800
O113        O  0.31674320  0.57637436  0.51842229    -0.51700
C114        C  0.37368286  0.52470333  0.52110641     0.70300
O115        O  0.38725936  0.54449697  0.52252986    -0.46600
C116        C  0.34128534  0.56020074  0.58539855     0.75000
O117        O  0.39056001  0.59399001  0.53769182    -0.58500
O118        O  0.32555556  0.56390589  0.56724755    -0.48600
O119        O  0.35474833  0.61224722  0.54073885    -0.54900
C120        C  0.32542364  0.57865706  0.49545122     0.85200
O121        O  0.35086471  0.52818181  0.52784492    -0.56800
O122        O  0.36427701  0.56189895  0.57836842    -0.60100
C123        C  0.51889781  0.37478570  0.46917886    -0.10800
C124        C  0.49538431  0.38705062  0.46998239    -0.04700
C125        C  0.47252482  0.37364337  0.46791163    -0.10800
C126        C  0.47302304  0.34692257  0.46510553     0.10100
C127        C  0.49686512  0.33421494  0.46350770    -0.02600
C128        C  0.51993037  0.34822939  0.46522514     0.09900
C129        C  0.54330428  0.33530682  0.46359970    -0.12600
C130        C  0.54405760  0.30896969  0.46057018    -0.12600
C131        C  0.52146737  0.29467368  0.45931162     0.09900
C132        C  0.49763718  0.30739682  0.46072153    -0.02600
C133        C  0.45044638  0.33263685  0.46380456    -0.12700
C134        C  0.45120965  0.30625906  0.46127891    -0.12700
C135        C  0.47457680  0.29331451  0.45968054     0.10100
C136        C  0.47557854  0.26656988  0.45741175    -0.10800
C137        C  0.49912873  0.25434722  0.45585151    -0.04700
C138        C  0.52196552  0.26792159  0.45680214    -0.10800
H139        H  0.56117703  0.34550701  0.46473891     0.07400
H140        H  0.56251615  0.29984053  0.45943112     0.07400
H141        H  0.43198764  0.34176345  0.46478899     0.07600
H142        H  0.43331076  0.29605603  0.46057897     0.07600
H143        H  0.49483699  0.40745779  0.47320114     0.04000
H144        H  0.49969256  0.23377129  0.45415212     0.04000
In145      In  0.34813703  0.06571736  0.45482559     1.36900
C146        C  0.32215781  0.05771678  0.41110019     0.77600
O147        O  0.34410488  0.10842385  0.45243704    -0.60800
O148        O  0.38040578  0.09200937  0.44625229    -0.51700
C149        C  0.33109279  0.06916244  0.50385769     0.70300
O150        O  0.31641214  0.06554305  0.48473603    -0.46600
C151        C  0.37393387  0.02208252  0.45850764     0.75000
O152        O  0.31150963  0.06017247  0.43312981    -0.58500
O153        O  0.38466598  0.04326319  0.45479114    -0.48600
O154        O  0.34599927  0.06034802  0.41146584    -0.54900
C155        C  0.36744673  0.11213734  0.44788491     0.85200
O156        O  0.35427649  0.07122764  0.49767709    -0.56800
O157        O  0.35004425  0.02339641  0.46037094    -0.60100
In158      In  0.65958149  0.07513489  0.47404584     1.36900
C159        C  0.63803409  0.03053492  0.48643928     0.77600
O160        O  0.65555665  0.06934324  0.43096867    -0.60800
O161        O  0.69183164  0.06315393  0.44760121    -0.51700
C162        C  0.63618315  0.11876906  0.46366167     0.70300
O163        O  0.62435884  0.09851778  0.46912011    -0.46600
C164        C  0.68453335  0.08819915  0.51725063     0.75000
O165        O  0.62548588  0.05088493  0.48423828    -0.58500
O166        O  0.69552740  0.08464863  0.49556499    -0.48600
O167        O  0.66157761  0.03326947  0.48263607    -0.54900
C168        C  0.67832178  0.06258023  0.42726704     0.85200
O169        O  0.66013015  0.11665357  0.46364466    -0.56800
O170        O  0.66078641  0.08473667  0.51668053    -0.60100
C171        C  0.53099554  0.77120531  0.53297377    -0.10800
C172        C  0.50786370  0.75822071  0.53447524    -0.04700
C173        C  0.48472888  0.77038906  0.52993235    -0.10800
C174        C  0.48440312  0.79666550  0.52401744     0.10100
C175        C  0.50778435  0.81025107  0.52262144    -0.02600
C176        C  0.53120976  0.79750980  0.52724166     0.09900
C177        C  0.55409161  0.81133810  0.52598473    -0.12600
C178        C  0.55404038  0.83726322  0.52009675    -0.12600
C179        C  0.53115182  0.85009729  0.51481404     0.09900
C180        C  0.50778143  0.83648835  0.51605307    -0.02600
C181        C  0.46149744  0.80953157  0.51892878    -0.12700
C182        C  0.46152259  0.83526276  0.51216962    -0.12700
C183        C  0.48443811  0.84902330  0.51051319     0.10100
C184        C  0.48480042  0.87494754  0.50309315    -0.10800
C185        C  0.50788144  0.88813040  0.50239295    -0.04700
C186        C  0.53088740  0.87626560  0.50843154    -0.10800
H187        H  0.57218488  0.80218723  0.52969224     0.07400
H188        H  0.57213119  0.84716195  0.51944595     0.07400
H189        H  0.44340070  0.79966898  0.51983950     0.07600
H190        H  0.44344114  0.84430977  0.50812410     0.07600
H191        H  0.50792207  0.73793418  0.53853666     0.04000
H192        H  0.50792824  0.90815204  0.49712321     0.04000
C193        C  0.52910944  0.78522997  0.21526206    -0.10800
C194        C  0.54239632  0.76240168  0.21270807    -0.04700
C195        C  0.53007489  0.73889684  0.21372937    -0.10800
C196        C  0.50334514  0.73788537  0.21723035     0.10100
C197        C  0.48944032  0.76095412  0.21954967    -0.02600
C198        C  0.50235319  0.78473759  0.21855401     0.09900
C199        C  0.48818936  0.80731421  0.22055592    -0.12600
C200        C  0.46179793  0.80661644  0.22363952    -0.12600
C201        C  0.44870093  0.78332810  0.22508641     0.09900
C202        C  0.46259962  0.76023835  0.22305000    -0.02600
C203        C  0.49020822  0.71459698  0.21852625    -0.12700
C204        C  0.46383536  0.71389456  0.22223865    -0.12700
C205        C  0.44969588  0.73647511  0.22452791     0.10100
C206        C  0.42296414  0.73609487  0.22834118    -0.10800
C207        C  0.40963114  0.75898675  0.23000509    -0.04700
C208        C  0.42197273  0.78241679  0.22822852    -0.10800
H209        H  0.49741840  0.82569482  0.21954970     0.07400
H210        H  0.45169912  0.82454146  0.22494678     0.07400
H211        H  0.50028981  0.69670755  0.21674345     0.07600
H212        H  0.45455761  0.69553519  0.22322049     0.07600
H213        H  0.56298786  0.76291400  0.21059617     0.04000
H214        H  0.38909665  0.75856898  0.23269209     0.04000
C215        C  0.92142226  0.74466472  0.29385805    -0.10800
C216        C  0.90903802  0.76818283  0.29369192    -0.07900
C217        C  0.92253662  0.79104235  0.29359272    -0.10800
C218        C  0.94941142  0.79063491  0.29338589     0.10100
C219        C  0.96235018  0.76690799  0.29394567    -0.02600
C220        C  0.94834695  0.74380393  0.29425480     0.09900
C221        C  0.96160460  0.72056211  0.29507765    -0.12600
C222        C  0.98815992  0.71996656  0.29507477    -0.12600
C223        C  0.00237511  0.74259607  0.29441203     0.09900
C224        C  0.98935328  0.76628638  0.29393747    -0.02600
C225        C  0.96363042  0.81326215  0.29272028    -0.12700
C226        C  0.99013355  0.81263915  0.29248199    -0.12700
C227        C  0.00330220  0.78938650  0.29313070     0.10100
C228        C  0.03013434  0.78857334  0.29284969    -0.10800
C229        C  0.04271756  0.76522694  0.29379169    -0.04700
C230        C  0.02931531  0.74229746  0.29441703    -0.10800
H231        H  0.95153329  0.70260175  0.29590918     0.07400
H232        H  0.99749775  0.70162208  0.29573435     0.07400
H233        H  0.95436590  0.83162870  0.29239534     0.07600
H234        H  0.00025271  0.83059400  0.29191963     0.07600
H235        H  0.88839100  0.76872950  0.29281348     0.04000
H236        H  0.06339469  0.76487632  0.29321993     0.04000
In237      In  0.22423119  0.91593437  0.24370707     1.36900
C238        C  0.23583090  0.95275909  0.27706472     0.77600
O239        O  0.18251520  0.91958432  0.25310077    -0.60800
O240        O  0.20108561  0.88488476  0.26178789    -0.51700
C241        C  0.21342835  0.92067970  0.19310375     0.70300
O242        O  0.21447264  0.93938149  0.20846698    -0.46600
C243        C  0.26914210  0.89238406  0.24382958     0.75000
O244        O  0.23382939  0.95648887  0.25279018    -0.58500
O245        O  0.24883001  0.88188034  0.25145022    -0.48600
O246        O  0.23100956  0.93028416  0.28417944    -0.54900
C247        C  0.18051586  0.89725680  0.26190395     0.85200
O248        O  0.21771761  0.89951683  0.20379059    -0.56800
O249        O  0.26617568  0.91473000  0.23542112    -0.60100
In250      In  0.22653962  0.60794097  0.27326205     1.36900
C251        C  0.27051937  0.62742767  0.25590378     0.77600
O252        O  0.23860170  0.62487863  0.31139352    -0.60800
O253        O  0.22991703  0.58558214  0.31044171    -0.51700
C254        C  0.18069401  0.63004876  0.27556155     0.70300
O255        O  0.19960826  0.64010079  0.26421070    -0.46600
C256        C  0.21845848  0.57020675  0.23985641     0.75000
O257        O  0.24973047  0.63949278  0.25551444    -0.58500
O258        O  0.22510572  0.56639741  0.26319887    -0.48600
O259        O  0.26855662  0.60508590  0.26468321    -0.54900
C260        C  0.23713250  0.60428676  0.32396253     0.85200
O261        O  0.18548849  0.60877293  0.28570803    -0.56800
O262        O  0.21656270  0.59330813  0.23354961    -0.60100
In263      In  0.72878508  0.91591804  0.23804910     1.36900
C264        C  0.68289078  0.89444401  0.23182706     0.77600
O265        O  0.71819958  0.92686174  0.27888755    -0.60800
O266        O  0.72610843  0.95658658  0.25211046    -0.51700
C267        C  0.77118740  0.89557839  0.25727497     0.70300
O268        O  0.75041939  0.88350853  0.25613789    -0.46600
C269        C  0.74309541  0.92175939  0.18831274     0.75000
O270        O  0.70171155  0.88282868  0.24140299    -0.58500
O271        O  0.73657894  0.94027786  0.20254204    -0.48600
O272        O  0.68774667  0.91711927  0.22552717    -0.54900
C273        C  0.71971382  0.95049426  0.27515390     0.85200
O274        O  0.77012209  0.91796160  0.24847090    -0.56800
O275        O  0.74181053  0.90044188  0.19956159    -0.60100
In276      In  0.72821963  0.61302762  0.24384566     1.36900
C277        C  0.71429484  0.60641105  0.29323784     0.77600
O278        O  0.76783661  0.61422669  0.25959026    -0.60800
O279        O  0.75474554  0.64644282  0.23893554    -0.51700
C280        C  0.73973712  0.57593433  0.21032090     0.70300
O281        O  0.73204927  0.57180229  0.23329534    -0.46600
C282        C  0.68490007  0.63231894  0.22558032     0.75000
O283        O  0.72259491  0.58872145  0.27895647    -0.58500
O284        O  0.70597378  0.64378707  0.22364998    -0.48600
O285        O  0.71367489  0.62791452  0.28223019    -0.54900
C286        C  0.77275381  0.63626376  0.25135817     0.85200
O287        O  0.74076384  0.59920027  0.20436457    -0.56800
O288        O  0.68639709  0.61067710  0.23607091    -0.60100
In289      In  0.84631786  0.44992284  0.03580626     1.36900
C290        C  0.82106525  0.46153134  0.07936631     0.77600
O291        O  0.84380887  0.40786434  0.04308494    -0.60800
O292        O  0.88040654  0.42455255  0.03867936    -0.51700
C293        C  0.82807611  0.44406656  0.98801118     0.70300
O294        O  0.81455030  0.44007936  0.00811640    -0.46600
C295        C  0.86878674  0.49464478  0.02784101     0.75000
O296        O  0.81040761  0.45919638  0.05744650    -0.58500
O297        O  0.88105556  0.47506178  0.03475968    -0.48600
O298        O  0.84466298  0.45694193  0.07911271    -0.54900
C299        C  0.86751835  0.40447201  0.04150288     0.85200
O300        O  0.85086104  0.44989820  0.99255213    -0.56800
O301        O  0.84512351  0.49119923  0.02605405    -0.60100
In302      In  0.14788211  0.45130117  0.04392959     1.36900
C303        C  0.12464859  0.40614544  0.04441314     0.77600
O304        O  0.15430793  0.44719656  0.00089004    -0.60800
O305        O  0.18666629  0.44746526  0.02549979    -0.51700
C306        C  0.12658355  0.49576056  0.03168465     0.70300
O307        O  0.11371190  0.47599038  0.03644052    -0.46600
C308        C  0.16215559  0.46220235  0.09253283     0.75000
O309        O  0.11341066  0.42674272  0.03965827    -0.58500
O310        O  0.17775576  0.45628597  0.07473413    -0.48600
O311        O  0.14789533  0.40883325  0.04986072    -0.54900
C312        C  0.17825600  0.44660010  0.00244144     0.85200
O313        O  0.15026845  0.49268213  0.03372905    -0.56800
O314        O  0.13917135  0.46046552  0.08588380    -0.60100
C315        C  0.01886212  0.25023454  0.03915875    -0.10800
C316        C  0.99584495  0.26217052  0.04508404    -0.04700
C317        C  0.97270517  0.24915863  0.04432405    -0.10800
C318        C  0.97246820  0.22303494  0.03786338     0.10100
C319        C  0.99571182  0.21069267  0.03130793    -0.02600
C320        C  0.01904499  0.22434540  0.03185404     0.09900
C321        C  0.04177718  0.21183197  0.02501996    -0.12600
C322        C  0.04157808  0.18640961  0.01727038    -0.12600
C323        C  0.01869910  0.17257222  0.01656798     0.09900
C324        C  0.99558456  0.18471228  0.02396965    -0.02600
C325        C  0.94972284  0.20893065  0.03801540    -0.12700
C326        C  0.94970903  0.18319477  0.03155679    -0.12700
C327        C  0.97236105  0.17084577  0.02422951     0.10100
C328        C  0.97261944  0.14484059  0.01748707    -0.10800
C329        C  0.99524539  0.13350239  0.00918533    -0.04700
C330        C  0.01814648  0.14687371  0.00857928    -0.10800
H331        H  0.05987635  0.22170833  0.02539545     0.07400
H332        H  0.05948620  0.17763059  0.01185184     0.07400
H333        H  0.93179303  0.21763639  0.04347592     0.07600
H334        H  0.93175189  0.17306967  0.03217628     0.07600
H335        H  0.99587975  0.28236928  0.04950263     0.04000
H336        H  0.99513257  0.11357070  0.00363074     0.04000
In337      In  0.14498594  0.95128578  0.95637763     1.36900
C338        C  0.17456016  0.96191513  0.91512646     0.77600
O339        O  0.14771168  0.90902932  0.95212544    -0.60800
O340        O  0.11196977  0.92624514  0.94537672    -0.51700
C341        C  0.15864452  0.94262410  0.00558087     0.70300
O342        O  0.17440986  0.94342211  0.98683494    -0.46600
C343        C  0.12223834  0.99613057  0.96223737     0.75000
O344        O  0.18337441  0.95758176  0.93761286    -0.58500
O345        O  0.11034587  0.97640396  0.95524170    -0.48600
O346        O  0.15068970  0.95993286  0.91378206    -0.54900
C347        C  0.12455425  0.90584483  0.94684248     0.85200
O348        O  0.13593099  0.94678291  0.99899228    -0.56800
O349        O  0.14563504  0.99268494  0.96633819    -0.60100
In350      In  0.84838884  0.94868682  0.96780571     1.36900
C351        C  0.87059548  0.99081598  0.98474843     0.77600
O352        O  0.85679336  0.96581694  0.92883661    -0.60800
O353        O  0.81829160  0.95764150  0.93820519    -0.51700
C354        C  0.86911959  0.90352001  0.95754674     0.70300
O355        O  0.88100558  0.92132772  0.96862839    -0.46600
C356        C  0.82040545  0.93687958  0.00939958     0.75000
O357        O  0.88308755  0.97228396  0.97563689    -0.58500
O358        O  0.81058101  0.94435564  0.98822371    -0.48600
O359        O  0.84682767  0.98754521  0.98537549    -0.54900
C360        C  0.83386955  0.96692052  0.92184369     0.85200
O361        O  0.84676293  0.90925468  0.95091113    -0.56800
O362        O  0.84436093  0.93550425  0.00901570    -0.60100
C363        C  0.97577064  0.64380311  0.98004797    -0.10800
C364        C  0.99915212  0.63178067  0.98360456    -0.04700
C365        C  0.02213274  0.64466035  0.97999311    -0.10800
C366        C  0.02193519  0.67057664  0.97257848     0.10100
C367        C  0.99823660  0.68299399  0.96847706    -0.02600
C368        C  0.97502814  0.66950341  0.97203288     0.09900
C369        C  0.95179316  0.68211488  0.96792400    -0.12600
C370        C  0.95128178  0.70769168  0.96068990    -0.12600
C371        C  0.97399182  0.72150313  0.95737906     0.09900
C372        C  0.99771573  0.70902937  0.96118153    -0.02600
C373        C  0.04466061  0.68431986  0.96908894    -0.12700
C374        C  0.04415081  0.70992112  0.96190094    -0.12700
C375        C  0.02091570  0.72265823  0.95813443     0.10100
C376        C  0.02012184  0.74875371  0.95151136    -0.10800
C377        C  0.99667813  0.76058347  0.94742641    -0.04700
C378        C  0.97372109  0.74750129  0.95031189    -0.10800
H379        H  0.93380474  0.67228286  0.97041312     0.07400
H380        H  0.93293979  0.71659983  0.95772326     0.07400
H381        H  0.06298502  0.67533052  0.97187933     0.07600
H382        H  0.06215391  0.71972907  0.95937987     0.07600
H383        H  0.99946595  0.61199574  0.98974391     0.04000
H384        H  0.99624718  0.78075997  0.94283179     0.04000
C385        C  0.87901360  0.83253324  0.94460826    -0.11400
C386        C  0.90550432  0.83074204  0.94711458     0.15200
C387        C  0.91987037  0.85294764  0.95179020     0.02100
C388        C  0.90742518  0.87622768  0.95483066    -0.15700
C389        C  0.88080135  0.87817122  0.95305880    -0.10500
C390        C  0.86647325  0.85588607  0.94775929     0.08800
C391        C  0.91767337  0.80539986  0.94741460     0.09800
S392        S  0.95406966  0.85269719  0.95532108    -0.24800
H393        H  0.91876441  0.89300927  0.95875359     0.20100
S394        S  0.83220638  0.85545271  0.94644686    -0.30500
H395        H  0.86795265  0.81543573  0.94131197     0.10400
C396        C  0.92312804  0.79318257  0.97130996     0.03600
C397        C  0.93926637  0.77194651  0.97143696    -0.12800
C398        C  0.95024534  0.76296431  0.94814420    -0.08500
C399        C  0.94301842  0.77396139  0.92403333     0.07100
C400        C  0.92664927  0.79497422  0.92389012    -0.13600
S401        S  0.91119103  0.80595594  0.00179764    -0.30500
H402        H  0.94508495  0.76363645  0.98986840     0.11300
S403        S  0.95596969  0.76347920  0.89312648    -0.27600
H404        H  0.92231583  0.80431009  0.90552235     0.08500
H405        H  0.82919655  0.86846311  0.97032109     0.27000
H406        H  0.92242780  0.78774078  0.01829726     0.21800
H407        H  0.96177940  0.73862199  0.90135947     0.27100
H408        H  0.95885287  0.83291070  0.93755677     0.15900
C409        C  0.11477583  0.83403617  0.94323344    -0.11400
C410        C  0.08838217  0.83245101  0.94682097     0.15200
C411        C  0.07387479  0.85497820  0.94873247     0.02100
C412        C  0.08610102  0.87855369  0.94732237    -0.15700
C413        C  0.11266208  0.88035886  0.94437144    -0.10500
C414        C  0.12702905  0.85766458  0.94160574     0.08800
C415        C  0.07599564  0.80725784  0.94688779     0.09800
S416        S  0.03965558  0.85500173  0.95266465    -0.24800
H417        H  0.07474354  0.89564614  0.94940643     0.20100
S418        S  0.16077478  0.85737165  0.93503905    -0.30500
H419        H  0.12581173  0.81673458  0.94110820     0.10400
C420        C  0.06496088  0.79755575  0.92395108     0.03600
C421        C  0.04859232  0.77658772  0.92568051    -0.12800
C422        C  0.04284365  0.76538076  0.94996713    -0.08500
C423        C  0.05541107  0.77405424  0.97268592     0.07100
C424        C  0.07234159  0.79456006  0.97077323    -0.13600
S425        S  0.07036653  0.81302259  0.89281483    -0.30500
H426        H  0.03880619  0.76995667  0.90837213     0.11300
S427        S  0.04903322  0.76136338  0.00490084    -0.27600
H428        H  0.08097953  0.80205272  0.98837327     0.08500
H429        H  0.15974536  0.87737093  0.91671046     0.27000
H430        H  0.05654608  0.79560746  0.87758169     0.21800
H431        H  0.02273246  0.75784283  0.00141031     0.27100
H432        H  0.03784924  0.83259936  0.96754309     0.15900
C433        C  0.06227416  0.10673889  0.96763236    -0.11400
C434        C  0.07264820  0.09109541  0.98710556     0.15200
C435        C  0.06856463  0.09715239  0.01371174     0.02100
C436        C  0.05274266  0.11756837  0.02025534    -0.15700
C437        C  0.04090434  0.13213133  0.00080799    -0.10500
C438        C  0.04637760  0.12715392  0.97420171     0.08800
C439        C  0.08486898  0.06695952  0.97922128     0.09800
S440        S  0.08096652  0.07810812  0.04013207    -0.24800
H441        H  0.04813044  0.12098211  0.04065898     0.20100
S442        S  0.03162947  0.14447591  0.94781248    -0.30500
H443        H  0.06536502  0.10210298  0.94720004     0.10400
C444        C  0.07133069  0.04382349  0.98029359     0.03600
C445        C  0.08377324  0.02110009  0.97375013    -0.12800
C446        C  0.10955663  0.02099050  0.96624789    -0.08500
C447        C  0.12273071  0.04445306  0.96417854     0.07100
C448        C  0.11029359  0.06710636  0.97083900    -0.13600
S449        S  0.03821047  0.04326386  0.99015670    -0.30500
H450        H  0.07354368  0.00325997  0.97514451     0.11300
S451        S  0.15511518  0.04695737  0.95255613    -0.27600
H452        H  0.12051712  0.08498557  0.96959885     0.08500
H453        H  0.02681249  0.16682148  0.96202825     0.27000
H454        H  0.03541554  0.01665463  0.99049110     0.21800
H455        H  0.15231127  0.02848840  0.93286879     0.27100
H456        H  0.10276573  0.06953582  0.02674163     0.15900
C457        C  0.88399640  0.05406874  0.01799616    -0.11400
C458        C  0.90587193  0.06184801  0.00437736     0.15200
C459        C  0.91661512  0.04576711  0.98515485     0.02100
C460        C  0.90490650  0.02256659  0.97956259    -0.15700
C461        C  0.88281142  0.01478703  0.99292299    -0.10500
C462        C  0.87243822  0.03067379  0.01262175     0.08800
C463        C  0.91784239  0.08631435  0.01115101     0.09800
S464        S  0.94496305  0.05387938  0.96675489    -0.24800
H465        H  0.91296831  0.01062708  0.96435992     0.20100
S466        S  0.84510633  0.02193633  0.03217295    -0.30500
H467        H  0.87604290  0.06621298  0.03308407     0.10400
C468        C  0.91654316  0.10746301  0.99422785     0.03600
C469        C  0.93286498  0.12818237  0.99832336    -0.12800
C470        C  0.95013389  0.12803422  0.01915504    -0.08500
C471        C  0.94942606  0.10797062  0.03757743     0.07100
C472        C  0.93333406  0.08726798  0.03334117    -0.13600
S473        S  0.89538978  0.10720456  0.96649270    -0.30500
H474        H  0.93360200  0.14358047  0.98422880     0.11300
S475        S  0.97045981  0.10661404  0.06536351    -0.27600
H476        H  0.93407293  0.07109078  0.04650306     0.08500
H477        H  0.85204736  0.99618990  0.03458096     0.27000
H478        H  0.90100869  0.13195755  0.95767972     0.21800
H479        H  0.97400110  0.13304125  0.06749925     0.27100
H480        H  0.95706750  0.06761704  0.98670630     0.15900
C481        C  0.07500302  0.35354805  0.03791598    -0.11400
C482        C  0.08963509  0.33194077  0.04333902     0.15200
C483        C  0.11583139  0.33465552  0.04866827     0.02100
C484        C  0.12658377  0.35905464  0.04887119    -0.15700
C485        C  0.11195200  0.38088908  0.04352931    -0.10500
C486        C  0.08579950  0.37780094  0.03749658     0.08800
C487        C  0.07642897  0.30718433  0.04275394     0.09800
S488        S  0.13690322  0.30813572  0.05469574    -0.24800
H489        H  0.14668817  0.36092229  0.05314920     0.20100
S490        S  0.06500431  0.40360641  0.02859382    -0.30500
H491        H  0.05492215  0.35140196  0.03354904     0.10400
C492        C  0.06678863  0.29607740  0.06587991     0.03600
C493        C  0.04985643  0.27556187  0.06411395    -0.12800
C494        C  0.04175623  0.26656154  0.03968180    -0.08500
C495        C  0.05207055  0.27724016  0.01655394     0.07100
C496        C  0.06972610  0.29705850  0.01838045    -0.13600
S497        S  0.07445772  0.30933930  0.09746673    -0.30500
H498        H  0.04145955  0.26760660  0.08173402     0.11300
S499        S  0.04197363  0.26798757  0.98422863    -0.27600
H500        H  0.07684017  0.30595108  0.00062193     0.08500
H501        H  0.08058187  0.41137886  0.00752725     0.27000
H502        H  0.05890747  0.29300736  0.11244810     0.21800
H503        H  0.01630679  0.26343488  0.99061969     0.27100
H504        H  0.11875229  0.28865605  0.05663084     0.15900
C505        C  0.07162979  0.59319891  0.97567720    -0.11400
C506        C  0.07709935  0.58987805  0.00231123     0.15200
C507        C  0.06849956  0.60815414  0.02055723     0.02100
C508        C  0.05262502  0.62787058  0.01213380    -0.15700
C509        C  0.04546776  0.62999365  0.98580991    -0.10500
C510        C  0.05598890  0.61310368  0.96722908     0.08800
C511        C  0.08978513  0.56605494  0.01056160     0.09800
S512        S  0.07553879  0.60632881  0.05504033    -0.24800
H513        H  0.04438379  0.64064662  0.02649049     0.20100
S514        S  0.04827040  0.61455515  0.93290906    -0.30500
H515        H  0.07849477  0.57941294  0.96156180     0.10400
C516        C  0.07611367  0.54645350  0.02322374     0.03600
C517        C  0.08869360  0.52390992  0.03006675    -0.12800
C518        C  0.11467853  0.52036461  0.02436975    -0.08500
C519        C  0.12828037  0.54003395  0.01136345     0.07100
C520        C  0.11561289  0.56261354  0.00464565    -0.13600
S521        S  0.04237814  0.54966803  0.02970561    -0.30500
H522        H  0.07814651  0.50886936  0.03974679     0.11300
S523        S  0.16134612  0.53640302  0.00194726    -0.27600
H524        H  0.12573582  0.57768190  0.99453173     0.08500
H525        H  0.04232582  0.64058863  0.93234723     0.27000
H526        H  0.03955056  0.52720803  0.04445578     0.21800
H527        H  0.16468774  0.56068057  0.99083413     0.27100
H528        H  0.09830950  0.59249765  0.05247154     0.15900
C529        C  0.91095572  0.34854287  0.02763790    -0.11400
C530        C  0.90096927  0.33000294  0.04459710     0.15200
C531        C  0.87953481  0.33591728  0.06025871     0.02100
C532        C  0.86894352  0.36035318  0.05894382    -0.15700
C533        C  0.87912907  0.37894754  0.04209402    -0.10500
C534        C  0.89995881  0.37262138  0.02575106     0.08800
C535        C  0.91461867  0.30545014  0.04639134     0.09800
S536        S  0.86485448  0.31322206  0.08215653    -0.24800
H537        H  0.85269916  0.36492395  0.07124690     0.20100
S538        S  0.91255759  0.39385145  0.00110726    -0.30500
H539        H  0.92737171  0.34408304  0.01552148     0.10400
C540        C  0.91707544  0.28932980  0.02447983     0.03600
C541        C  0.93446147  0.26912933  0.02525420    -0.12800
C542        C  0.94936827  0.26473010  0.04751710    -0.08500
C543        C  0.94525753  0.27959740  0.07017553     0.07100
C544        C  0.92806564  0.29986723  0.06931955    -0.13600
S545        S  0.89907194  0.29530356  0.99506034    -0.30500
H546        H  0.93782983  0.25786463  0.00784694     0.11300
S547        S  0.96281651  0.27480766  0.10003850    -0.27600
H548        H  0.92614061  0.31218670  0.08620512     0.08500
H549        H  0.88863533  0.40317199  0.99330516     0.27000
H550        H  0.90777875  0.27401916  0.98097944     0.21800
H551        H  0.96839690  0.24900908  0.09559856     0.27100
H552        H  0.87189977  0.29138937  0.06802852     0.15900
C553        C  0.92701451  0.60507246  0.01697441    -0.11400
C554        C  0.91981522  0.58778641  0.99751698     0.15200
C555        C  0.92773220  0.59189916  0.97139051     0.02100
C556        C  0.94429008  0.61202457  0.96567655    -0.15700
C557        C  0.95284462  0.62832260  0.98544979    -0.10500
C558        C  0.94344091  0.62530524  0.01122240     0.08800
C559        C  0.90683873  0.56408803  0.00561965     0.09800
S560        S  0.91912280  0.57091390  0.94498230    -0.24800
H561        H  0.95178990  0.61407665  0.94596995     0.20100
S562        S  0.95377362  0.64495901  0.03805178    -0.30500
H563        H  0.92094188  0.60193820  0.03703910     0.10400
C564        C  0.92057918  0.54131205  0.00873318     0.03600
C565        C  0.90776461  0.51919987  0.01668390    -0.12800
C566        C  0.88131451  0.51919556  0.02118135    -0.08500
C567        C  0.86755901  0.54222153  0.01786538     0.07100
C568        C  0.88060685  0.56443557  0.01048168    -0.13600
S569        S  0.95454250  0.54048587  0.00277780    -0.30500
H570        H  0.91840591  0.50172145  0.01900435     0.11300
S571        S  0.83356905  0.54413425  0.02337283    -0.27600
H572        H  0.87036884  0.58217511  0.00826537     0.08500
H573        H  0.95875169  0.66684959  0.02309787     0.27000
H574        H  0.95729777  0.51391882  0.00437531     0.21800
H575        H  0.82985593  0.56772067  0.01090772     0.27100
H576        H  0.89592278  0.56263820  0.95589768     0.15900
C577        C  0.76872249  0.48522250  0.12462360    -0.11400
C578        C  0.78305806  0.49995696  0.14198079     0.15200
C579        C  0.80988062  0.49823672  0.14145007     0.02100
C580        C  0.82181786  0.48406403  0.12180088    -0.15700
C581        C  0.80754809  0.47102886  0.10290064    -0.10500
C582        C  0.78067814  0.47042215  0.10539820     0.08800
C583        C  0.76989696  0.51910916  0.15829571     0.09800
S584        S  0.82988633  0.51507823  0.16422745    -0.24800
H585        H  0.84242402  0.48434418  0.12052055     0.20100
S586        S  0.76060169  0.45145805  0.08461363    -0.30500
H587        H  0.74810391  0.48595534  0.12547571     0.10400
C588        C  0.77182709  0.54516294  0.15222373     0.03600
C589        C  0.76110347  0.56307433  0.16919090    -0.12800
C590        C  0.74815430  0.55560053  0.19209532    -0.08500
C591        C  0.74485923  0.52926366  0.19729950     0.07100
C592        C  0.75590449  0.51133396  0.18031783    -0.13600
S593        S  0.78803645  0.55564507  0.12279169    -0.30500
H594        H  0.76334983  0.58309854  0.16480929     0.11300
S595        S  0.72678972  0.51798797  0.22524741    -0.27600
H596        H  0.75422616  0.49119871  0.18446653     0.08500
H597        H  0.77805184  0.43124964  0.08238376     0.27000
H598        H  0.78415492  0.58188267  0.12633627     0.21800
H599        H  0.72673272  0.49206596  0.21847293     0.27100
H600        H  0.81212712  0.51553223  0.18492054     0.15900
C601        C  0.80085533  0.91222660  0.07631108    -0.11400
C602        C  0.77904409  0.92685243  0.08128816     0.15200
C603        C  0.76961868  0.94305182  0.06151355     0.02100
C604        C  0.78290107  0.94520130  0.03776980    -0.15700
C605        C  0.80528128  0.93125466  0.03315837    -0.10500
C606        C  0.81375281  0.91386314  0.05237843     0.08800
C607        C  0.76783732  0.92602150  0.10792690     0.09800
S608        S  0.74113629  0.96181212  0.06560201    -0.24800
H609        H  0.77610291  0.95844655  0.02310008     0.20100
S610        S  0.84060707  0.89298239  0.04752628    -0.30500
H611        H  0.80802284  0.89956676  0.09134236     0.10400
C612        C  0.75673572  0.90365847  0.11803415     0.03600
C613        C  0.74864681  0.90301228  0.14422021    -0.12800
C614        C  0.75143781  0.92425852  0.16065394    -0.08500
C615        C  0.76238249  0.94676222  0.15026877     0.07100
C616        C  0.77017680  0.94744740  0.12403039    -0.13600
S617        S  0.75252571  0.87605981  0.09746854    -0.30500
H618        H  0.74007900  0.88581766  0.15194507     0.11300
S619        S  0.76852116  0.97465000  0.16966324    -0.27600
H620        H  0.77908252  0.96451971  0.11634341     0.08500
H621        H  0.83564828  0.88850271  0.02087597     0.27000
H622        H  0.74146752  0.86023620  0.11664348     0.21800
H623        H  0.77901773  0.96094966  0.19069758     0.27100
H624        H  0.72891920  0.94507376  0.08312484     0.15900
C625        C  0.16508164  0.49883907  0.15654840    -0.11400
C626        C  0.19068625  0.49549408  0.16320823     0.15200
C627        C  0.20597673  0.47875747  0.14838442     0.02100
C628        C  0.19572599  0.46710922  0.12618019    -0.15700
C629        C  0.17050151  0.47180050  0.11835447    -0.10500
C630        C  0.15491688  0.48758994  0.13418165     0.08800
C631        C  0.20124526  0.51270985  0.18319911     0.09800
S632        S  0.23895931  0.47258785  0.15583977    -0.24800
H633        H  0.20786387  0.45493537  0.11442593     0.20100
S634        S  0.12286967  0.49651550  0.12572134    -0.30500
H635        H  0.15340754  0.51186863  0.16783608     0.10400
C636        C  0.21380793  0.53529929  0.17572407     0.03600
C637        C  0.21964966  0.55346978  0.19477157    -0.12800
C638        C  0.21321020  0.54953560  0.22116625    -0.08500
C639        C  0.20114786  0.52655920  0.22867396     0.07100
C640        C  0.19543778  0.50835553  0.20962763    -0.13600
S641        S  0.22110607  0.54166295  0.14171629    -0.30500
H642        H  0.22888769  0.57105013  0.18903604     0.11300
S643        S  0.19060541  0.52021823  0.26168349    -0.27600
H644        H  0.18531410  0.49120407  0.21523206     0.08500
H645        H  0.12984989  0.50557978  0.10073416     0.27000
H646        H  0.23455622  0.56445863  0.14574454     0.21800
H647        H  0.18093550  0.54483573  0.26595062     0.27100
H648        H  0.23788613  0.47984207  0.18227413     0.15900
C649        C  0.20697199  0.90909193  0.11985964    -0.11400
C650        C  0.19184450  0.92987260  0.11253900     0.15200
C651        C  0.18437334  0.94774151  0.13167406     0.02100
C652        C  0.19189294  0.94429564  0.15764242    -0.15700
C653        C  0.20703572  0.92351950  0.16508510    -0.10500
C654        C  0.21497850  0.90593212  0.14574803     0.08800
C655        C  0.18368323  0.93212948  0.08495854     0.09800
S656        S  0.16516101  0.97526020  0.12430056    -0.24800
H657        H  0.18566551  0.95791808  0.17221257     0.20100
S658        S  0.23598390  0.87963960  0.15246702    -0.30500
H659        H  0.21281496  0.89539704  0.10519561     0.10400
C660        C  0.20124162  0.93750565  0.06475168     0.03600
C661        C  0.19251069  0.94024164  0.03903533    -0.12800
C662        C  0.16653635  0.93776717  0.03297021    -0.08500
C663        C  0.14909686  0.93159744  0.05330959     0.07100
C664        C  0.15784641  0.92908973  0.07899697    -0.13600
S665        S  0.23461900  0.94209627  0.07181922    -0.30500
H666        H  0.20597342  0.94493939  0.02366204     0.11300
S667        S  0.11564002  0.92609988  0.04802237    -0.27600
H668        H  0.14442876  0.92458783  0.09451778     0.08500
H669        H  0.25218248  0.89371929  0.16885189     0.27000
H670        H  0.24272497  0.94654182  0.04591702     0.21800
H671        H  0.11966722  0.91008847  0.02634254     0.27100
H672        H  0.17452985  0.97891382  0.09873645     0.15900
C673        C  0.07851950  0.69278807  0.31167638    -0.11400
C674        C  0.08488138  0.68377088  0.28666242     0.15200
C675        C  0.06970320  0.69079489  0.26507937     0.02100
C676        C  0.04992802  0.70831812  0.26859684    -0.15700
C677        C  0.04473003  0.71873910  0.29329524    -0.10500
C678        C  0.05857590  0.71014443  0.31521922     0.08800
C679        C  0.10915932  0.66982091  0.28320802     0.09800
S680        S  0.07595252  0.67965509  0.23229825    -0.24800
H681        H  0.03950891  0.71505219  0.25168139     0.20100
S682        S  0.05299092  0.72220595  0.34776713    -0.30500
H683        H  0.09002702  0.68732388  0.32831982     0.10400
C684        C  0.13091506  0.68210883  0.27299904     0.03600
C685        C  0.15371109  0.66847750  0.27018649    -0.12800
C686        C  0.15537424  0.64268693  0.27734718    -0.08500
C687        C  0.13317453  0.63031796  0.28703656     0.07100
C688        C  0.11056034  0.64413569  0.29030834    -0.13600
S689        S  0.12987694  0.71546859  0.26440665    -0.30500
H690        H  0.17048783  0.67817797  0.26284029     0.11300
S691        S  0.13198793  0.59692967  0.29493645    -0.27600
H692        H  0.09373412  0.63466561  0.29793737     0.08500
H693        H  0.02738141  0.72893937  0.34385148     0.27000
H694        H  0.15493464  0.71728122  0.25469719     0.21800
H695        H  0.14387627  0.58940474  0.27142888     0.27100
H696        H  0.08718204  0.65647000  0.23963853     0.15900
C697        C  0.07283756  0.83813606  0.26240264    -0.11400
C698        C  0.08516014  0.84749943  0.28467228     0.15200
C699        C  0.07669427  0.84022316  0.30978987     0.02100
C700        C  0.05710939  0.82222739  0.31215586    -0.15700
C701        C  0.04610720  0.81147822  0.28983035    -0.10500
C702        C  0.05345229  0.81998089  0.26475086     0.08800
C703        C  0.10971152  0.86065144  0.28100033     0.09800
S704        S  0.09225939  0.85231308  0.33863247    -0.24800
H705        H  0.05132651  0.81539018  0.33130039     0.20100
S706        S  0.03963877  0.80607178  0.23579173    -0.30500
H707        H  0.07970363  0.84374365  0.24321416     0.10400
C708        C  0.13195630  0.84638277  0.27655110     0.03600
C709        C  0.15484726  0.85897894  0.27132947    -0.12800
C710        C  0.15607181  0.88565633  0.27033414    -0.08500
C711        C  0.13387389  0.90001173  0.27604157     0.07100
C712        C  0.11082085  0.88725549  0.28113108    -0.13600
S713        S  0.13105538  0.81198071  0.27711365    -0.30500
H714        H  0.17176406  0.84788042  0.26727838     0.11300
S715        S  0.13463188  0.93434860  0.27760607    -0.27600
H716        H  0.09356685  0.89789347  0.28500135     0.08500
H717        H  0.05406461  0.82001932  0.21744368     0.27000
H718        H  0.15670301  0.80795906  0.27020120     0.21800
H719        H  0.10886217  0.93792304  0.28431950     0.27100
H720        H  0.07807243  0.83811300  0.35697404     0.15900
C721        C  0.86634836  0.69907030  0.30225506    -0.11400
C722        C  0.86704504  0.68635614  0.27814598     0.15200
C723        C  0.88800461  0.69011705  0.26114516     0.02100
C724        C  0.90659832  0.70806230  0.26758066    -0.15700
C725        C  0.90518177  0.72177658  0.29108427    -0.10500
C726        C  0.88536826  0.71637721  0.30908499     0.08800
C727        C  0.84417218  0.67198105  0.27007570     0.09800
S728        S  0.89152260  0.67336932  0.23057383    -0.24800
H729        H  0.92169009  0.71217065  0.25363854     0.20100
S730        S  0.88258226  0.73195782  0.34041161    -0.30500
H731        H  0.85034628  0.69620234  0.31542699     0.10400
C732        C  0.83563561  0.65047779  0.28402875     0.03600
C733        C  0.81245152  0.63912591  0.27720313    -0.12800
C734        C  0.79742902  0.64889098  0.25677221    -0.08500
C735        C  0.80649953  0.67010488  0.24240404     0.07100
C736        C  0.82969213  0.68132733  0.24917514    -0.13600
S737        S  0.85450570  0.63717438  0.31016461    -0.30500
H738        H  0.80586173  0.62269753  0.28810527     0.11300
S739        S  0.78986499  0.68333601  0.21486825    -0.27600
H740        H  0.83625608  0.69790257  0.23843266     0.08500
H741        H  0.90865402  0.73748099  0.34306325     0.27000
H742        H  0.83664013  0.61886751  0.31846111     0.21800
H743        H  0.76951532  0.69202162  0.23050315     0.27100
H744        H  0.87787457  0.65158820  0.23838281     0.15900
C745        C  0.87211016  0.83976906  0.30901208    -0.11400
C746        C  0.86710668  0.84904409  0.28381923     0.15200
C747        C  0.88385536  0.84293248  0.26303400     0.02100
C748        C  0.90365835  0.82565737  0.26732098    -0.15700
C749        C  0.90729297  0.81466121  0.29203415    -0.10500
C750        C  0.89214093  0.82275817  0.31335457     0.08800
C751        C  0.84205605  0.86085469  0.27884715     0.09800
S752        S  0.87935743  0.85451100  0.23012594    -0.24800
H753        H  0.91520271  0.81940728  0.25089108     0.20100
S754        S  0.89612005  0.81029074  0.34598296    -0.30500
H755        H  0.85935344  0.84451660  0.32502582     0.10400
C756        C  0.82155136  0.84595128  0.26995391     0.03600
C757        C  0.79829552  0.85764655  0.26407719    -0.12800
C758        C  0.79504711  0.88399766  0.26701224    -0.08500
C759        C  0.81523108  0.89861116  0.27752342     0.07100
C760        C  0.83858241  0.88693099  0.28307625    -0.13600
S761        S  0.82520296  0.81200898  0.26571828    -0.30500
H762        H  0.78285815  0.84632970  0.25632597     0.11300
S763        S  0.81221746  0.93196592  0.28501261    -0.27600
H764        H  0.85416378  0.89821313  0.29062804     0.08500
H765        H  0.92204306  0.80410069  0.34314609     0.27000
H766        H  0.79992538  0.80694393  0.25838032     0.21800
H767        H  0.78688336  0.93013732  0.29400005     0.27100
H768        H  0.86683237  0.87712390  0.23713015     0.15900
C769        C  0.37663788  0.68325111  0.21290087    -0.11400
C770        C  0.36692987  0.67805971  0.23800863     0.15200
C771        C  0.37886991  0.68891195  0.26005039     0.02100
C772        C  0.39896656  0.70606119  0.25642197    -0.15700
C773        C  0.40754908  0.71261142  0.23125797    -0.10500
C774        C  0.39674524  0.70060890  0.20930598     0.08800
C775        C  0.34208573  0.66483984  0.24040932     0.09800
S776        S  0.36776592  0.68357397  0.29310182    -0.24800
H777        H  0.40691584  0.71565046  0.27328591     0.20100
S778        S  0.40695259  0.70927598  0.17668408    -0.30500
H779        H  0.36727133  0.67504270  0.19606982     0.10400
C780        C  0.31940789  0.67885946  0.24337701     0.03600
C781        C  0.29629954  0.66603233  0.24726544    -0.12800
C782        C  0.29517599  0.63933154  0.24820075    -0.08500
C783        C  0.31787853  0.62530195  0.24372917     0.07100
C784        C  0.34105391  0.63820955  0.24010789    -0.13600
S785        S  0.31996969  0.71323047  0.24284235    -0.30500
H786        H  0.27912416  0.67698510  0.25051776     0.11300
S787        S  0.31868554  0.59108990  0.24206800    -0.27600
H788        H  0.35844569  0.62744521  0.23727285     0.08500
H789        H  0.39136783  0.69189152  0.16331684     0.27000
H790        H  0.29341761  0.71681691  0.24300821     0.21800
H791        H  0.29623819  0.58920811  0.22725594     0.27100
H792        H  0.35720180  0.65941375  0.28869155     0.15900
C793        C  0.37023740  0.82946582  0.21208556    -0.11400
C794        C  0.36592655  0.84059170  0.23663727     0.15200
C795        C  0.38252667  0.83489657  0.25754379     0.02100
C796        C  0.40214826  0.81722493  0.25376309    -0.15700
C797        C  0.40565311  0.80528262  0.22949076    -0.10500
C798        C  0.38993580  0.81201692  0.20826646     0.08800
C799        C  0.34222096  0.85541360  0.24032948     0.09800
S800        S  0.37887612  0.84848520  0.28973951    -0.24800
H801        H  0.41398342  0.81181622  0.27016974     0.20100
S802        S  0.39276171  0.79742934  0.17645057    -0.30500
H803        H  0.35742266  0.83356115  0.19605470     0.10400
C804        C  0.33790302  0.87831564  0.22673659     0.03600
C805        C  0.31405813  0.89017566  0.22870504    -0.12800
C806        C  0.29438004  0.87971637  0.24413871    -0.08500
C807        C  0.29931653  0.85733889  0.25875159     0.07100
C808        C  0.32292613  0.84526403  0.25628993    -0.13600
S809        S  0.36277970  0.89247563  0.20693422    -0.30500
H810        H  0.31060113  0.90744069  0.21773370     0.11300
S811        S  0.27675085  0.84338529  0.28127380    -0.27600
H812        H  0.32628631  0.82769354  0.26684154     0.08500
H813        H  0.41891957  0.79201528  0.17807424     0.27000
H814        H  0.34910428  0.91423741  0.19930535     0.21800
H815        H  0.27027017  0.86675954  0.29292711     0.27100
H816        H  0.36701450  0.87106773  0.28149827     0.15900
C817        C  0.57593692  0.68731257  0.23415332    -0.11400
C818        C  0.58870700  0.68295198  0.21040371     0.15200
C819        C  0.57919501  0.69381821  0.18714571     0.02100
C820        C  0.55838793  0.71040381  0.18847302    -0.15700
C821        C  0.54677118  0.71626725  0.21253357    -0.10500
C822        C  0.55534271  0.70414179  0.23554459     0.08800
C823        C  0.61356132  0.66977455  0.21127690     0.09800
S824        S  0.59389628  0.68875442  0.15558666    -0.24800
H825        H  0.55209966  0.71994258  0.17083548     0.20100
S826        S  0.54207886  0.71069994  0.26748095    -0.30500
H827        H  0.58320248  0.67895123  0.25202044     0.10400
C828        C  0.63655450  0.68362055  0.21132978     0.03600
C829        C  0.65967458  0.67068986  0.21456296    -0.12800
C830        C  0.66036569  0.64413709  0.21786753    -0.08500
C831        C  0.63723880  0.63025733  0.21639310     0.07100
C832        C  0.61414655  0.64326420  0.21361414    -0.13600
S833        S  0.63635075  0.71792894  0.20885443    -0.30500
H834        H  0.67718948  0.68149572  0.21568165     0.11300
S835        S  0.63569212  0.59604704  0.21773753    -0.27600
H836        H  0.59644285  0.63264997  0.21326508     0.08500
H837        H  0.53778128  0.73678957  0.26348735     0.27000
H838        H  0.66293399  0.72131229  0.20852820     0.21800
H839        H  0.65714724  0.59251011  0.20150716     0.27100
H840        H  0.60459745  0.66493140  0.16143756     0.15900
C841        C  0.57900375  0.83360710  0.19618917    -0.11400
C842        C  0.58547895  0.84328932  0.22081901     0.15200
C843        C  0.57002900  0.83729967  0.24272625     0.02100
C844        C  0.54995693  0.81994332  0.23996219    -0.15700
C845        C  0.54468055  0.80878705  0.21565987    -0.10500
C846        C  0.55869963  0.81658229  0.19336481     0.08800
C847        C  0.61026254  0.85650084  0.22359781     0.09800
S848        S  0.57622550  0.84956474  0.27502126    -0.24800
H849        H  0.53939168  0.81390054  0.25717504     0.20100
S850        S  0.55275994  0.80388035  0.16120268    -0.30500
H851        H  0.59068020  0.83829876  0.17928873     0.10400
C852        C  0.63194452  0.84324281  0.23221104     0.03600
C853        C  0.65521797  0.85611289  0.23450792    -0.12800
C854        C  0.65747427  0.88214985  0.22843475    -0.08500
C855        C  0.63554764  0.89539405  0.21956116     0.07100
C856        C  0.61229422  0.88230269  0.21709472    -0.13600
S857        S  0.63004716  0.80969841  0.23984182    -0.30500
H858        H  0.67179925  0.84571099  0.24102813     0.11300
S859        S  0.63646258  0.92889289  0.21151073    -0.27600
H860        H  0.59548213  0.89216426  0.21029482     0.08500
H861        H  0.52697406  0.79794063  0.16568084     0.27000
H862        H  0.65482142  0.80721045  0.24986708     0.21800
H863        H  0.61037022  0.93190312  0.20623243     0.27100
H864        H  0.58853625  0.87197015  0.26683317     0.15900
C865        C  0.71946494  0.03313058  0.37359258    -0.11400
C866        C  0.70054991  0.02519996  0.35610865     0.15200
C867        C  0.67514548  0.03293282  0.36034808     0.02100
C868        C  0.66883001  0.04639846  0.38298344    -0.15700
C869        C  0.68737002  0.05290539  0.40155359    -0.10500
C870        C  0.71324885  0.04736980  0.39593479     0.08800
C871        C  0.70691413  0.00631704  0.33560693     0.09800
S872        S  0.64967447  0.02507510  0.33821152    -0.24800
H873        H  0.64897245  0.05090514  0.38654230     0.20100
S874        S  0.73912981  0.05764116  0.41637838    -0.30500
H875        H  0.73909625  0.02762155  0.37016531     0.10400
C876        C  0.72085988  0.01270889  0.31290455     0.03600
C877        C  0.72467629  0.99421737  0.29339442    -0.12800
C878        C  0.71472596  0.96945114  0.29611016    -0.08500
C879        C  0.70068263  0.96333114  0.31905084     0.07100
C880        C  0.69738151  0.98160294  0.33856232    -0.13600
S881        S  0.73289870  0.04459965  0.30839695    -0.30500
H882        H  0.73541878  0.99909099  0.27594111     0.11300
S883        S  0.68512484  0.93316625  0.32424253    -0.27600
H884        H  0.68644396  0.97677360  0.35595133     0.08500
H885        H  0.72855293  0.08176810  0.42132500     0.27000
H886        H  0.74598945  0.03996181  0.28478934     0.21800
H887        H  0.67432847  0.93254605  0.29908519     0.27100
H888        H  0.66486538  0.02439409  0.31546904     0.15900
C889        C  0.57640367  0.92897434  0.52577289    -0.11400
C890        C  0.58836369  0.93318032  0.50155907     0.15200
C891        C  0.58447555  0.91574193  0.48095125     0.02100
C892        C  0.56711927  0.89572518  0.48437679    -0.15700
C893        C  0.55390661  0.89254307  0.50810282    -0.10500
C894        C  0.55931385  0.90884029  0.52927988     0.08800
C895        C  0.60126808  0.95790417  0.49740762     0.09800
S896        S  0.59927110  0.91933122  0.44922865    -0.24800
H897        H  0.56277896  0.88343974  0.46798005     0.20100
S898        S  0.54311061  0.90641975  0.56039356    -0.30500
H899        H  0.57929586  0.94235747  0.54159760     0.10400
C900        C  0.58714680  0.97960865  0.49035236     0.03600
C901        C  0.59955059  0.00308159  0.48750420    -0.12800
C902        C  0.62585324  0.00552053  0.49190472    -0.08500
C903        C  0.63973259  0.98376225  0.50005549     0.07100
C904        C  0.62734610  0.96023531  0.50244590    -0.13600
S905        S  0.55322947  0.97737027  0.48490709    -0.30500
H906        H  0.58870881  0.01952925  0.48132860     0.11300
S907        S  0.67291827  0.98476069  0.50876565    -0.27600
H908        H  0.63801174  0.94366757  0.50868880     0.08500
H909        H  0.53902615  0.88003039  0.55937929     0.27000
H910        H  0.54857001  0.00369143  0.48368101     0.21800
H911        H  0.67058303  0.00728448  0.52343591     0.27100
H912        H  0.62146613  0.93136657  0.45814643     0.15900
C913        C  0.26915460  0.03913647  0.36478922    -0.11400
C914        C  0.28287752  0.02435809  0.34682194     0.15200
C915        C  0.30972457  0.02432900  0.34754120     0.02100
C916        C  0.32214888  0.03703582  0.36776438    -0.15700
C917        C  0.30837539  0.05008571  0.38719839    -0.10500
C918        C  0.28164728  0.05237576  0.38469468     0.08800
C919        C  0.26881794  0.00659807  0.32993166     0.09800
S920        S  0.32909484  0.00678150  0.32452961    -0.24800
H921        H  0.34267548  0.03544548  0.36910062     0.20100
S922        S  0.26241685  0.07154006  0.40629822    -0.30500
H923        H  0.24854273  0.03961069  0.36385636     0.10400
C924        C  0.26669276  0.98075385  0.33681119     0.03600
C925        C  0.25464559  0.96393608  0.31969804    -0.12800
C926        C  0.24478636  0.97234552  0.29566118    -0.08500
C927        C  0.24591726  0.99862002  0.28946806     0.07100
C928        C  0.25803132  0.01540827  0.30662294    -0.13600
S929        S  0.27976652  0.96910794  0.36723878    -0.30500
H930        H  0.25370991  0.94395031  0.32472743     0.11300
S931        S  0.23227484  0.01204621  0.26026942    -0.27600
H932        H  0.25938106  0.03540852  0.30163617     0.08500
H933        H  0.28096437  0.09063089  0.40939177     0.27000
H934        H  0.27500957  0.94314077  0.36282467     0.21800
H935        H  0.20982985  0.99746152  0.26189118     0.27100
H936        H  0.31160091  0.00708153  0.30381988     0.15900
C937        C  0.39074006  0.95180346  0.46503328    -0.11400
C938        C  0.41582999  0.95340075  0.47406346     0.15200
C939        C  0.42777851  0.97743889  0.47554405     0.02100
C940        C  0.41387090  0.99938208  0.46961633    -0.15700
C941        C  0.38834812  0.99799651  0.46159886    -0.10500
C942        C  0.37704498  0.97372355  0.45834992     0.08800
C943        C  0.42915515  0.92984575  0.48201397     0.09800
S944        S  0.46046909  0.98150090  0.48555566    -0.24800
H945        H  0.42297682  0.01775494  0.47184060     0.20100
S946        S  0.34561529  0.96927888  0.44509784    -0.30500
H947        H  0.38177762  0.93331609  0.46315920     0.10400
C948        C  0.43318308  0.92397233  0.50861368     0.03600
C949        C  0.44962638  0.90395895  0.51525452    -0.12800
C950        C  0.46183116  0.88960951  0.49576649    -0.08500
C951        C  0.45600173  0.89417856  0.46921346     0.07100
C952        C  0.43976795  0.91426229  0.46260191    -0.13600
S953        S  0.41852562  0.94288114  0.53401666    -0.30500
H954        H  0.45436037  0.90055406  0.53556986     0.11300
S955        S  0.47051041  0.87648518  0.44288795    -0.27600
H956        H  0.43643009  0.91859846  0.44215436     0.08500
H957        H  0.34831834  0.98834116  0.42588196     0.27000
H958        H  0.42625015  0.92757388  0.55515082     0.21800
H959        H  0.47377627  0.85383935  0.45712311     0.27100
H960        H  0.46946618  0.95790728  0.47656072     0.15900
C961        C  0.37862757  0.18406616  0.44510259    -0.11400
C962        C  0.40512882  0.18490493  0.44832776     0.15200
C963        C  0.41896632  0.16196699  0.44965344     0.02100
C964        C  0.40607268  0.13882070  0.44867872    -0.15700
C965        C  0.37947442  0.13766404  0.44607745    -0.10500
C966        C  0.36567325  0.16073823  0.44362341     0.08800
C967        C  0.41819735  0.20962984  0.45138169     0.09800
S968        S  0.45311983  0.16086914  0.45346423    -0.24800
H969        H  0.41707085  0.12147443  0.45053189     0.20100
S970        S  0.33180084  0.16188585  0.43837171    -0.30500
H971        H  0.36799847  0.20168937  0.44380991     0.10400
C972        C  0.42425687  0.22496550  0.42955237     0.03600
C973        C  0.44139975  0.24524662  0.43252199    -0.12800
C974        C  0.45266578  0.25020882  0.45681954    -0.08500
C975        C  0.44528295  0.23582719  0.47894912     0.07100
C976        C  0.42804570  0.21579508  0.47602441    -0.13600
S977        S  0.41234445  0.21704515  0.39749510    -0.30500
H978        H  0.44747080  0.25613586  0.41558914     0.11300
S979        S  0.45903191  0.24057609  0.51084966    -0.27600
H980        H  0.42347345  0.20391339  0.49276645     0.08500
H981        H  0.33195603  0.14235638  0.41957239     0.27000
H982        H  0.42382681  0.23745038  0.38403077     0.21800
H983        H  0.46430836  0.26659919  0.50757447     0.27100
H984        H  0.45843673  0.18301385  0.43897969     0.15900
C985        C  0.58580643  0.16783471  0.44661757    -0.11400
C986        C  0.59796869  0.19048303  0.45392170     0.15200
C987        C  0.62332610  0.18953212  0.46293815     0.02100
C988        C  0.63556171  0.16595813  0.46521616    -0.15700
C989        C  0.62315399  0.14320367  0.45848255    -0.10500
C990        C  0.59819556  0.14438957  0.44828208     0.08800
C991        C  0.58272394  0.21419779  0.45373214     0.09800
S992        S  0.64091864  0.21755031  0.47219944    -0.24800
H993        H  0.65477635  0.16535673  0.47287864     0.20100
S994        S  0.58126400  0.11691975  0.43644701    -0.30500
H995        H  0.56633944  0.16843881  0.43962841     0.10400
C996        C  0.57210496  0.22369107  0.43035987     0.03600
C997        C  0.55355872  0.24282576  0.43164050    -0.12800
C998        C  0.54571442  0.25281347  0.45578810    -0.08500
C999        C  0.55770475  0.24473706  0.47895393     0.07100
C1000       C  0.57608634  0.22542422  0.47772448    -0.13600
S1001       S  0.58160044  0.21084818  0.39901683    -0.30500
H1002       H  0.54419216  0.24920182  0.41396093     0.11300
S1003       S  0.54810887  0.25762428  0.51022225    -0.27600
H1004       H  0.58426256  0.21800317  0.49560583     0.08500
H1005       H  0.60279025  0.10575575  0.42462561     0.27000
H1006       H  0.56601506  0.22656597  0.38359131     0.21800
H1007       H  0.56673544  0.24513985  0.52519337     0.27100
H1008       H  0.62794371  0.23452621  0.45568774     0.15900
C1009       C  0.26999562  0.57998502  0.44755238    -0.11400
C1010       C  0.28157688  0.59176233  0.42588516     0.15200
C1011       C  0.30709976  0.59999590  0.42768815     0.02100
C1012       C  0.32054166  0.59591487  0.45081312    -0.15700
C1013       C  0.30935276  0.58335294  0.47225861    -0.10500
C1014       C  0.28366218  0.57534377  0.47053586     0.08800
C1015       C  0.26698539  0.59463422  0.40137775     0.09800
S1016       S  0.32382979  0.61540450  0.40108122    -0.24800
H1017       H  0.34012948  0.60232618  0.45189642     0.20100
S1018       S  0.26760534  0.55794108  0.49617429    -0.30500
H1019       H  0.25040091  0.57365287  0.44621225     0.10400
C1020       C  0.26074421  0.57337718  0.38593010     0.03600
C1021       C  0.24964499  0.57711967  0.36135800    -0.12800
C1022       C  0.24465856  0.60169196  0.35177549    -0.08500
C1023       C  0.24929617  0.62285494  0.36823075     0.07100
C1024       C  0.26063646  0.61908520  0.39264725    -0.13600
S1025       S  0.26873984  0.54154806  0.39645522    -0.30500
H1026       H  0.24606899  0.56080209  0.34901672     0.11300
S1027       S  0.24135450  0.65508586  0.35945844    -0.27600
H1028       H  0.26496550  0.63538106  0.40480923     0.08500
H1029       H  0.28811221  0.54128611  0.50064073     0.27000
H1030       H  0.25528778  0.52863897  0.37677966     0.21800
H1031       H  0.21756606  0.64858458  0.34878751     0.27100
H1032       H  0.31210605  0.60158519  0.38092957     0.15900
C1033       C  0.37961175  0.45513287  0.49950230    -0.11400
C1034       C  0.40585370  0.45347973  0.49480090     0.15200
C1035       C  0.42130248  0.47509210  0.49886084     0.02100
C1036       C  0.41018846  0.49786266  0.50713522    -0.15700
C1037       C  0.38390142  0.49972168  0.51215282    -0.10500
C1038       C  0.36839818  0.47788062  0.50826465     0.08800
C1039       C  0.41691994  0.42920219  0.48546738     0.09800
S1040       S  0.45541392  0.47485297  0.49401993    -0.24800
H1041       H  0.42239522  0.51424209  0.51001539     0.20100
S1042       S  0.33438217  0.47835087  0.51406398    -0.30500
H1043       H  0.36796209  0.43843522  0.49628459     0.10400
C1044       C  0.42005853  0.40827888  0.50248695     0.03600
C1045       C  0.43627749  0.38831664  0.49505829    -0.12800
C1046       C  0.44889152  0.38876286  0.47078752    -0.08500
C1047       C  0.44304396  0.40807791  0.45256273     0.07100
C1048       C  0.42732638  0.42822644  0.46015136    -0.13600
S1049       S  0.40564536  0.40820149  0.53465323    -0.30500
H1050       H  0.44087391  0.37348127  0.50899647     0.11300
S1051       S  0.45699526  0.40906401  0.42023950    -0.27600
H1052       H  0.42440225  0.44399527  0.44679692     0.08500
H1053       H  0.32918042  0.45340917  0.50573024     0.27000
H1054       H  0.41266524  0.38321836  0.54139006     0.21800
H1055       H  0.46158809  0.38276011  0.41845916     0.27100
H1056       H  0.45923777  0.44950226  0.50186987     0.15900
C1057       C  0.42753518  0.66740118  0.54997192    -0.11400
C1058       C  0.41412179  0.68855012  0.54055749     0.15200
C1059       C  0.38873182  0.68554946  0.53232030     0.02100
C1060       C  0.37761119  0.66134721  0.53279868    -0.15700
C1061       C  0.39122407  0.63990678  0.54145493    -0.10500
C1062       C  0.41638193  0.64313957  0.55067805     0.08800
C1063       C  0.42813574  0.71277958  0.53731237     0.09800
S1064       S  0.36978771  0.71171599  0.52048410    -0.24800
H1065       H  0.35824656  0.65919489  0.52587473     0.20100
S1066       S  0.43440176  0.61680612  0.56382195    -0.30500
H1067       H  0.44705463  0.66991986  0.55623467     0.10400
C1068       C  0.43421124  0.72824076  0.55888940     0.03600
C1069       C  0.45085051  0.74889692  0.55539290    -0.12800
C1070       C  0.46175014  0.75409752  0.53080990    -0.08500
C1071       C  0.45470826  0.73920652  0.50901194     0.07100
C1072       C  0.43784742  0.71886511  0.51248287    -0.13600
S1073       S  0.42183111  0.72081449  0.59104699    -0.30500
H1074       H  0.45678499  0.75999178  0.57212598     0.11300
S1075       S  0.46861154  0.74338106  0.47690488    -0.27600
H1076       H  0.43332473  0.70681545  0.49595080     0.08500
H1077       H  0.45522606  0.63109692  0.57286765     0.27000
H1078       H  0.43256016  0.74181974  0.60397388     0.21800
H1079       H  0.47461262  0.76925973  0.47950391     0.27100
H1080       H  0.38207022  0.73075906  0.53500422     0.15900
C1081       C  0.69565147  0.57520962  0.35763918    -0.11400
C1082       C  0.69398616  0.59637375  0.37411541     0.15200
C1083       C  0.69802706  0.62096724  0.36378280     0.02100
C1084       C  0.70449141  0.62368183  0.33732045    -0.15700
C1085       C  0.70630892  0.60243997  0.32072445    -0.10500
C1086       C  0.70106763  0.57796102  0.33104294     0.08800
C1087       C  0.68715469  0.59190307  0.40173681     0.09800
S1088       S  0.69519349  0.64956947  0.38309264    -0.24800
H1089       H  0.70814510  0.64259197  0.32966580     0.20100
S1090       S  0.69967678  0.54956921  0.31138122    -0.30500
H1091       H  0.69196956  0.55636827  0.36550772     0.10400
C1092       C  0.66221217  0.58489134  0.40873466     0.03600
C1093       C  0.65651416  0.57965960  0.43490332    -0.12800
C1094       C  0.67515061  0.58150210  0.45449665    -0.08500
C1095       C  0.70025481  0.58882921  0.44741136     0.07100
C1096       C  0.70594173  0.59385559  0.42099936    -0.13600
S1097       S  0.63746299  0.58293892  0.38435399    -0.30500
H1098       H  0.63730049  0.57398994  0.44004811     0.11300
S1099       S  0.72511042  0.59237400  0.47148195    -0.27600
H1100       H  0.72505879  0.59926875  0.41518568     0.08500
H1101       H  0.68506826  0.56098063  0.29153306     0.27000
H1102       H  0.61685660  0.58085370  0.40194998     0.21800
H1103       H  0.74447290  0.60040990  0.45420422     0.27100
H1104       H  0.67852729  0.63989191  0.40227349     0.15900
C1105       C  0.56482610  0.41597781  0.50629934    -0.11400
C1106       C  0.57432036  0.43147536  0.48616341     0.15200
C1107       C  0.56857913  0.42554026  0.45986893     0.02100
C1108       C  0.55204019  0.40529299  0.45451588    -0.15700
C1109       C  0.54144420  0.39066969  0.47484639    -0.10500
C1110       C  0.54848167  0.39570991  0.50095884     0.08800
C1111       C  0.58788913  0.45495744  0.49374899     0.09800
S1112       S  0.58031920  0.44398591  0.43252538    -0.24800
H1113       H  0.54631364  0.40175699  0.43449697     0.20100
S1114       S  0.53502183  0.37882759  0.52851741    -0.30500
H1115       H  0.56915348  0.42053331  0.52648173     0.10400
C1116       C  0.57545076  0.47870574  0.49374931     0.03600
C1117       C  0.58836179  0.50026284  0.50289442    -0.12800
C1118       C  0.61341085  0.49857008  0.51230271    -0.08500
C1119       C  0.62549144  0.47449356  0.51296770     0.07100
C1120       C  0.61270636  0.45308087  0.50346150    -0.13600
S1121       S  0.54292896  0.48145926  0.48265050    -0.30500
H1122       H  0.57901420  0.51859994  0.50236734     0.11300
S1123       S  0.65657297  0.46946102  0.52685497    -0.27600
H1124       H  0.62193543  0.43466036  0.50418929     0.08500
H1125       H  0.53259797  0.35530391  0.51585007     0.27000
H1126       H  0.54004950  0.50757479  0.48780663     0.21800
H1127       H  0.65262370  0.48604727  0.54808696     0.27100
H1128       H  0.60190571  0.45386205  0.44508353     0.15900
C1129       C  0.57817734  0.72512080  0.56120712    -0.11400
C1130       C  0.58478260  0.71148630  0.53859573     0.15200
C1131       C  0.57712978  0.72073450  0.51386531     0.02100
C1132       C  0.56233786  0.74279697  0.51240625    -0.15700
C1133       C  0.55414406  0.75533411  0.53513806    -0.10500
C1134       C  0.56295669  0.74693314  0.55973243     0.08800
C1135       C  0.59766860  0.68663022  0.54150463     0.09800
S1136       S  0.58370055  0.70417780  0.48366292    -0.24800
H1137       H  0.55510576  0.74883593  0.49354515     0.20100
S1138       S  0.55365758  0.76200623  0.58997080    -0.30500
H1139       H  0.58405865  0.71811290  0.58020745     0.10400
C1140       C  0.62336078  0.68313327  0.53444252     0.03600
C1141       C  0.63385800  0.65858743  0.53515292    -0.12800
C1142       C  0.61921019  0.63743154  0.54301591    -0.08500
C1143       C  0.59386518  0.64144568  0.55170010     0.07100
C1144       C  0.58334961  0.66585678  0.55052446    -0.13600
S1145       S  0.64259477  0.70990789  0.52426738    -0.30500
H1146       H  0.65334219  0.65578161  0.52874204     0.11300
S1147       S  0.57398458  0.61649247  0.56482798    -0.27600
H1148       H  0.56368389  0.66867238  0.55642458     0.08500
H1149       H  0.54830187  0.78595598  0.57906542     0.27000
H1150       H  0.66532056  0.69627814  0.52024307     0.21800
H1151       H  0.59364457  0.60529553  0.57950712     0.27100
H1152       H  0.58223007  0.67944676  0.49404748     0.15900
C1153       C  0.80655409  0.41156521  0.86783707    -0.11400
C1154       C  0.79583814  0.43221202  0.88122944     0.15200
C1155       C  0.78045806  0.44970834  0.86748632     0.02100
C1156       C  0.77625760  0.44620176  0.84068628    -0.15700
C1157       C  0.78664547  0.42527139  0.82735680    -0.10500
C1158       C  0.80225985  0.40795587  0.84114791     0.08800
C1159       C  0.80253318  0.43578022  0.90905928     0.09800
S1160       S  0.76534827  0.47655501  0.88309155    -0.24800
H1161       H  0.76420113  0.45954039  0.83032566     0.20100
S1162       S  0.81831880  0.38160404  0.82568499    -0.30500
H1163       H  0.81886099  0.39844873  0.87819270     0.10400
C1164       C  0.79445347  0.41847679  0.92855403     0.03600
C1165       C  0.80235787  0.42198565  0.95449327    -0.12800
C1166       C  0.81824924  0.44237821  0.96117637    -0.08500
C1167       C  0.82553013  0.46017332  0.94175502     0.07100
C1168       C  0.81792721  0.45647564  0.91589783    -0.13600
S1169       S  0.77393247  0.39209537  0.92041448    -0.30500
H1170       H  0.79670573  0.40849798  0.96948864     0.11300
S1171       S  0.84373291  0.48842661  0.94890425    -0.27600
H1172       H  0.82394909  0.46990487  0.90096650     0.08500
H1173       H  0.82487543  0.39516678  0.80283440     0.27000
H1174       H  0.77206257  0.38187392  0.94581821     0.21800
H1175       H  0.83190034  0.49300105  0.97322143     0.27100
H1176       H  0.76271791  0.46525597  0.90793052     0.15900
C1177       C  0.72727413  0.52784060  0.61749230    -0.11400
C1178       C  0.71250248  0.51601841  0.63690604     0.15200
C1179       C  0.68590306  0.51985365  0.63730188     0.02100
C1180       C  0.67445547  0.53337051  0.61689093    -0.15700
C1181       C  0.68903018  0.54380660  0.59632171    -0.10500
C1182       C  0.71593294  0.54216103  0.59759756     0.08800
C1183       C  0.72518437  0.49854808  0.65541845     0.09800
S1184       S  0.66542559  0.50703767  0.66257572    -0.24800
H1185       H  0.65387434  0.53490362  0.61664631     0.20100
S1186       S  0.73692416  0.55787837  0.57470896    -0.30500
H1187       H  0.74779431  0.52556575  0.61763967     0.10400
C1188       C  0.72467063  0.47206426  0.65157058     0.03600
C1189       C  0.73611143  0.45603230  0.67003678    -0.12800
C1190       C  0.74834632  0.46589981  0.69227845    -0.08500
C1191       C  0.74987106  0.49267490  0.69533219     0.07100
C1192       C  0.73821488  0.50862508  0.67684974    -0.13600
S1193       S  0.70941888  0.45870444  0.62309474    -0.30500
H1194       H  0.73496918  0.43564096  0.66738333     0.11300
S1195       S  0.76698298  0.50703076  0.72212928    -0.27600
H1196       H  0.73900841  0.52908424  0.67911042     0.08500
H1197       H  0.72220324  0.58021760  0.57346946     0.27000
H1198       H  0.71731455  0.43344531  0.62716172     0.21800
H1199       H  0.76000809  0.53238412  0.71704913     0.27100
H1200       H  0.68380353  0.50637636  0.68245268     0.15900
C1201       C  0.83492998  0.00365663  0.85776531    -0.11400
C1202       C  0.80957309  0.01170262  0.85648830     0.15200
C1203       C  0.79167176  0.00234269  0.87478411     0.02100
C1204       C  0.79995044  0.98670737  0.89518674    -0.15700
C1205       C  0.82568587  0.97967412  0.89743917    -0.10500
C1206       C  0.84311844  0.98744903  0.87769331     0.08800
C1207       C  0.80285951  0.03084372  0.83660026     0.09800
S1208       S  0.75827999  0.01037648  0.87372343    -0.24800
H1209       H  0.78624467  0.98068039  0.90987333     0.20100
S1210       S  0.87598569  0.97762696  0.87658847    -0.30500
H1211       H  0.84854606  0.01040351  0.84330153     0.10400
C1212       C  0.79907550  0.05648461  0.84342247     0.03600
C1213       C  0.79358543  0.07421019  0.82379000    -0.12800
C1214       C  0.79223096  0.06691279  0.79737993    -0.08500
C1215       C  0.79670061  0.04119028  0.79055447     0.07100
C1216       C  0.80183474  0.02345499  0.81033480    -0.13600
S1217       S  0.80207328  0.06677967  0.87700301    -0.30500
H1218       H  0.79036426  0.09388560  0.82906633     0.11300
S1219       S  0.79757104  0.03079990  0.75683297    -0.27600
H1220       H  0.80548990  0.00376405  0.80540945     0.08500
H1221       H  0.87061275  0.95223254  0.88343716     0.27000
H1222       H  0.79999020  0.09303064  0.87208406     0.21800
H1223       H  0.80017926  0.00462206  0.76186047     0.27100
H1224       H  0.75712618  0.01469044  0.84659616     0.15900
C1225       C  0.74278319  0.13044842  0.62305812    -0.11400
C1226       C  0.73673241  0.10584889  0.61471195     0.15200
C1227       C  0.74279077  0.08485654  0.63074376     0.02100
C1228       C  0.75302717  0.08904394  0.65556123    -0.15700
C1229       C  0.75798584  0.11378204  0.66461361    -0.10500
C1230       C  0.75373324  0.13463988  0.64756052     0.08800
C1231       C  0.72293756  0.10278155  0.58982602     0.09800
S1232       S  0.73712488  0.05236751  0.62101899    -0.24800
H1233       H  0.75654462  0.07280220  0.66811189     0.20100
S1234       S  0.76188918  0.16699345  0.65556821    -0.30500
H1235       H  0.73865331  0.14653528  0.61047983     0.10400
C1236       C  0.69687345  0.09653957  0.58955506     0.03600
C1237       C  0.68476668  0.09250151  0.56555791    -0.12800
C1238       C  0.69805404  0.09503030  0.54169109    -0.08500
C1239       C  0.72385370  0.10299953  0.54215842     0.07100
C1240       C  0.73605743  0.10636930  0.56618334    -0.13600
S1241       S  0.67900101  0.09394759  0.61979370    -0.30500
H1242       H  0.66491668  0.08694904  0.56546393     0.11300
S1243       S  0.74216562  0.10990738  0.51308607    -0.27600
H1244       H  0.75594509  0.11190400  0.56649191     0.08500
H1245       H  0.78577703  0.16057305  0.66608022     0.27000
H1246       H  0.65546975  0.08757790  0.60851743     0.21800
H1247       H  0.72257710  0.12404520  0.50124666     0.27100
H1248       H  0.73974983  0.05646498  0.59394032     0.15900
C1249       C  0.19514054  0.98652131  0.84831252    -0.11400
C1250       C  0.21869698  0.99751612  0.85439047     0.15200
C1251       C  0.22941565  0.99302758  0.87922784     0.02100
C1252       C  0.21523582  0.97996124  0.89826994    -0.15700
C1253       C  0.19072351  0.97056295  0.89286677    -0.10500
C1254       C  0.18140518  0.97253926  0.86696855     0.08800
C1255       C  0.22997106  0.01595479  0.83565347     0.09800
S1256       S  0.26070886  0.00420956  0.88795675    -0.24800
H1257       H  0.22307511  0.97803751  0.91775446     0.20100
S1258       S  0.15217457  0.95792676  0.85639137    -0.30500
H1259       H  0.18709075  0.98939875  0.82903203     0.10400
C1260       C  0.23950377  0.00839315  0.81106461     0.03600
C1261       C  0.24812376  0.02692623  0.79328817    -0.12800
C1262       C  0.24699331  0.05299023  0.79933833    -0.08500
C1263       C  0.23697387  0.06044644  0.82396993     0.07100
C1264       C  0.22911302  0.04188008  0.84194268    -0.13600
S1265       S  0.24098584  0.97513509  0.80245450    -0.30500
H1266       H  0.25575635  0.02106216  0.77452225     0.11300
S1267       S  0.23173847  0.09314801  0.83300174    -0.27600
H1268       H  0.22115076  0.04772887  0.86060629     0.08500
H1269       H  0.15581515  0.93556099  0.87110311     0.27000
H1270       H  0.24937462  0.97862920  0.77649304     0.21800
H1271       H  0.22064732  0.09968210  0.80888811     0.27100
H1272       H  0.27073929  0.00406499  0.86237002     0.15900
C1273       C  0.30754491  0.06586472  0.63017813    -0.11400
C1274       C  0.29820293  0.08261441  0.61113969     0.15200
C1275       C  0.28301579  0.10345167  0.61894899     0.02100
C1276       C  0.27762189  0.10704101  0.64557197    -0.15700
C1277       C  0.28707172  0.09039115  0.66478413    -0.10500
C1278       C  0.30257285  0.06974338  0.65683328     0.08800
C1279       C  0.30661327  0.07905875  0.58370577     0.09800
S1280       S  0.27068077  0.12674464  0.59626971    -0.24800
H1281       H  0.26588041  0.12305601  0.65131731     0.20100
S1282       S  0.31817922  0.04880381  0.67963411    -0.30500
H1283       H  0.31973413  0.05023684  0.62427010     0.10400
C1284       C  0.32886575  0.09092630  0.57422585     0.03600
C1285       C  0.33643186  0.08707980  0.54819168    -0.12800
C1286       C  0.32222659  0.07155780  0.53131509    -0.08500
C1287       C  0.30018983  0.05917233  0.54112600     0.07100
C1288       C  0.29254067  0.06321034  0.56712872    -0.13600
S1289       S  0.34765431  0.11097114  0.59535733    -0.30500
H1290       H  0.35336875  0.09649088  0.54083433     0.11300
S1291       S  0.28174879  0.03712900  0.52201360    -0.27600
H1292       H  0.27566268  0.05374226  0.57460979     0.08500
H1293       H  0.32603394  0.06852968  0.69636046     0.27000
H1294       H  0.36609459  0.11795092  0.57659136     0.21800
H1295       H  0.30306132  0.02546726  0.51029937     0.27100
H1296       H  0.27257826  0.11224443  0.57332248     0.15900
C1297       C  0.13724304  0.20943762  0.71107367    -0.11400
C1298       C  0.13563736  0.19198719  0.73176928     0.15200
C1299       C  0.11494910  0.19327488  0.74947185     0.02100
C1300       C  0.09728914  0.21306424  0.74714601    -0.15700
C1301       C  0.09926530  0.23091837  0.72675784    -0.10500
C1302       C  0.11907346  0.22854883  0.70809242     0.08800
C1303       C  0.15724950  0.17449868  0.73571901     0.09800
S1304       S  0.11036255  0.17048129  0.77549384    -0.24800
H1305       H  0.08212673  0.21480306  0.76151860     0.20100
S1306       S  0.12267181  0.24982877  0.68054978    -0.30500
H1307       H  0.15309635  0.20844136  0.69742088     0.10400
C1308       C  0.16258480  0.15475994  0.71796715     0.03600
C1309       C  0.18484051  0.14038556  0.72103718    -0.12800
C1310       C  0.20196012  0.14545085  0.74145245    -0.08500
C1311       C  0.19586438  0.16461663  0.75988329     0.07100
C1312       C  0.17376813  0.17905071  0.75662786    -0.13600
S1313       S  0.14114434  0.14806543  0.69131113    -0.30500
H1314       H  0.18929951  0.12563968  0.70698194     0.11300
S1315       S  0.21507659  0.17146504  0.78813724    -0.27600
H1316       H  0.16951793  0.19418246  0.77035362     0.08500
H1317       H  0.09660655  0.25534721  0.67786633     0.27000
H1318       H  0.15410102  0.12657554  0.68172693     0.21800
H1319       H  0.21982368  0.14576954  0.79404832     0.27100
H1320       H  0.12242110  0.15009013  0.76267166     0.15900
C1321       C  0.86728004  0.34652667  0.71888740    -0.11400
C1322       C  0.88882973  0.36223107  0.71890427     0.15200
C1323       C  0.88585902  0.38858496  0.72287559     0.02100
C1324       C  0.86150141  0.39848768  0.72770393    -0.15700
C1325       C  0.83980217  0.38271620  0.72832131    -0.10500
C1326       C  0.84297415  0.35629383  0.72384828     0.08800
C1327       C  0.91404611  0.34985160  0.71675261     0.09800
S1328       S  0.91237895  0.41040452  0.72239872    -0.24800
H1329       H  0.85953462  0.41874494  0.73100882     0.20100
S1330       S  0.81732303  0.33359143  0.72581691    -0.30500
H1331       H  0.86958577  0.32621869  0.71608354     0.10400
C1332       C  0.92859497  0.34446731  0.73922054     0.03600
C1333       C  0.94980822  0.32838014  0.73710856    -0.12800
C1334       C  0.95670245  0.31766226  0.71297920    -0.08500
C1335       C  0.94322609  0.32461523  0.69022183     0.07100
C1336       C  0.92190354  0.34042364  0.69237135    -0.13600
S1337       S  0.91878980  0.35609292  0.77095166    -0.30500
H1338       H  0.95996510  0.32263740  0.75454246     0.11300
S1339       S  0.95136350  0.31248079  0.65825965    -0.27600
H1340       H  0.91076106  0.34461834  0.67509481     0.08500
H1341       H  0.80910494  0.34200335  0.75060780     0.27000
H1342       H  0.94016219  0.34732236  0.78479100     0.21800
H1343       H  0.97723172  0.30808319  0.66366034     0.27100
H1344       H  0.92789935  0.39607971  0.70545853     0.15900
C1345       C  0.87473284  0.19227597  0.72198298    -0.11400
C1346       C  0.89645466  0.17679122  0.72254961     0.15200
C1347       C  0.89386984  0.15068966  0.72835116     0.02100
C1348       C  0.86953954  0.14064162  0.73301064    -0.15700
C1349       C  0.84766859  0.15608148  0.73197200    -0.10500
C1350       C  0.85045970  0.18225079  0.72625626     0.08800
C1351       C  0.92129053  0.18927685  0.71800552     0.09800
S1352       S  0.92066396  0.12930652  0.73013368    -0.24800
H1353       H  0.86768351  0.12056373  0.73746796     0.20100
S1354       S  0.82395496  0.20375135  0.72292796    -0.30500
H1355       H  0.87672865  0.21240110  0.71775506     0.10400
C1356       C  0.92708266  0.20039152  0.69356368     0.03600
C1357       C  0.94691510  0.21813423  0.69174783    -0.12800
C1358       C  0.96088272  0.22504294  0.71395510    -0.08500
C1359       C  0.95648747  0.21215748  0.73789557     0.07100
C1360       C  0.93693105  0.19414681  0.73954701    -0.13600
S1361       S  0.90808969  0.19318019  0.66513731    -0.30500
H1362       H  0.95044655  0.22800268  0.67345514     0.11300
S1363       S  0.97348526  0.21937107  0.76757473    -0.27600
H1364       H  0.93246327  0.18553460  0.75831577     0.08500
H1365       H  0.80962340  0.18703059  0.70734716     0.27000
H1366       H  0.92137814  0.20895163  0.64746460     0.21800
H1367       H  0.97491629  0.24577910  0.76355791     0.27100
H1368       H  0.93659968  0.14280513  0.71282071     0.15900
C1369       C  0.38595648  0.13616870  0.76594534    -0.11400
C1370       C  0.38627904  0.16256439  0.76949175     0.15200
C1371       C  0.36310320  0.17604477  0.77048004     0.02100
C1372       C  0.34022461  0.16313193  0.76652204    -0.15700
C1373       C  0.33963524  0.13674858  0.76208178    -0.10500
C1374       C  0.36289935  0.12298822  0.76248849     0.08800
C1375       C  0.41088224  0.17619328  0.76989122     0.09800
S1376       S  0.36151352  0.20995311  0.77581248    -0.24800
H1377       H  0.32269082  0.17399156  0.76668167     0.20100
S1378       S  0.36398625  0.08895600  0.75770154    -0.30500
H1379       H  0.40389988  0.12605021  0.76517857     0.10400
C1380       C  0.42499650  0.17887690  0.79310121     0.03600
C1381       C  0.44498545  0.19661280  0.79390584    -0.12800
C1382       C  0.45126819  0.21116705  0.77173941    -0.08500
C1383       C  0.43880536  0.20640921  0.74783658     0.07100
C1384       C  0.41855205  0.18920901  0.74722544    -0.13600
S1385       S  0.41599435  0.16152688  0.82222655    -0.30500
H1386       H  0.45457572  0.20042403  0.81219421     0.11300
S1387       S  0.44669413  0.22316620  0.71802358    -0.27600
H1388       H  0.40791878  0.18681900  0.72927131     0.08500
H1389       H  0.38964380  0.08555658  0.76469468     0.27000
H1390       H  0.43649873  0.16967667  0.83772492     0.21800
H1391       H  0.47222867  0.22806028  0.72450654     0.27100
H1392       H  0.38296521  0.21155644  0.79205166     0.15900
C1393       C  0.61799996  0.33100623  0.75268841    -0.11400
C1394       C  0.63046488  0.33921613  0.77530236     0.15200
C1395       C  0.62077856  0.33228099  0.80015088     0.02100
C1396       C  0.60005921  0.31556894  0.80172293    -0.15700
C1397       C  0.58867578  0.30599880  0.77898866    -0.10500
C1398       C  0.59724324  0.31449896  0.75424042     0.08800
C1399       C  0.65498422  0.35251960  0.77184410     0.09800
S1400       S  0.63510099  0.34257491  0.83034375    -0.24800
H1401       H  0.59377082  0.30873847  0.82072357     0.20100
S1402       S  0.58458105  0.30257944  0.72390387    -0.30500
H1403       H  0.62543871  0.33635064  0.73361260     0.10400
C1404       C  0.67827231  0.33936573  0.77402574     0.03600
C1405       C  0.70110251  0.35208349  0.76822148    -0.12800
C1406       C  0.70103835  0.37756539  0.75991868    -0.08500
C1407       C  0.67751563  0.39034120  0.75692335     0.07100
C1408       C  0.65483313  0.37780983  0.76328458    -0.13600
S1409       S  0.67882515  0.30617201  0.78333718    -0.30500
H1410       H  0.71907438  0.34222658  0.77034140     0.11300
S1411       S  0.67494248  0.42194143  0.74342327    -0.27600
H1412       H  0.63682507  0.38754913  0.76071913     0.08500
H1413       H  0.55950174  0.29942967  0.73294575     0.27000
H1414       H  0.70539805  0.30298303  0.78192646     0.21800
H1415       H  0.69428088  0.41850767  0.72455958     0.27100
H1416       H  0.64598234  0.36502176  0.82031561     0.15900
C1417       C  0.62543494  0.19194761  0.80424163    -0.11400
C1418       C  0.63439242  0.18326548  0.77997073     0.15200
C1419       C  0.61999920  0.18800780  0.75719238     0.02100
C1420       C  0.59826576  0.20330765  0.75882921    -0.15700
C1421       C  0.59046223  0.21369823  0.78279891    -0.10500
C1422       C  0.60352641  0.20700092  0.80588737     0.08800
C1423       C  0.66044099  0.17279356  0.77833980     0.09800
S1424       S  0.62984110  0.17733637  0.72515948    -0.24800
H1425       H  0.58849321  0.20871136  0.74102837     0.20100
S1426       S  0.59451463  0.21925354  0.83755010    -0.30500
H1427       H  0.63640038  0.18825522  0.82175677     0.10400
C1428       C  0.68132453  0.18874124  0.77259116     0.03600
C1429       C  0.70545197  0.17798379  0.76857178    -0.12800
C1430       C  0.70913438  0.15157859  0.77036483    -0.08500
C1431       C  0.68845904  0.13594456  0.77823725     0.07100
C1432       C  0.66431282  0.14668777  0.78187387    -0.13600
S1433       S  0.67703354  0.22274325  0.76965980    -0.30500
H1434       H  0.72124494  0.19007936  0.76288877     0.11300
S1435       S  0.69161785  0.10231044  0.78429547    -0.27600
H1436       H  0.64833795  0.13458793  0.78706692     0.08500
H1437       H  0.56863969  0.22284694  0.83160898     0.27000
H1438       H  0.70285121  0.22890315  0.76571708     0.21800
H1439       H  0.71603178  0.10419425  0.79538871     0.27100
H1440       H  0.64274085  0.15544594  0.73362116     0.15900
C1441       C  0.25667214  0.42710233  0.90238703    -0.11400
C1442       C  0.23747741  0.44505982  0.90697818     0.15200
C1443       C  0.23083234  0.46232759  0.88695335     0.02100
C1444       C  0.24214396  0.46002776  0.86224732    -0.15700
C1445       C  0.26022606  0.44100581  0.85703637    -0.10500
C1446       C  0.26832622  0.42506942  0.87776625     0.08800
C1447       C  0.22308338  0.44386665  0.93187302     0.09800
S1448       S  0.20696706  0.48669012  0.89120162    -0.24800
H1449       H  0.23585474  0.47249858  0.84664867     0.20100
S1450       S  0.29321097  0.40171880  0.87413884    -0.30500
H1451       H  0.26211245  0.41412974  0.91789841     0.10400
C1452       C  0.19840863  0.43339088  0.93277872     0.03600
C1453       C  0.18447709  0.43421157  0.95620519    -0.12800
C1454       C  0.19470617  0.44522117  0.97887321    -0.08500
C1455       C  0.21975824  0.45523665  0.97797560     0.07100
C1456       C  0.23378200  0.45409224  0.95460211    -0.13600
S1457       S  0.18466501  0.41897851  0.90402553    -0.30500
H1458       H  0.16542600  0.42633929  0.95683240     0.11300
S1459       S  0.23429194  0.47126036  0.00522627    -0.27600
H1460       H  0.25275421  0.46219648  0.95380414     0.08500
H1461       H  0.30804839  0.41660882  0.85693546     0.27000
H1462       H  0.16156030  0.41139547  0.91572965     0.21800
H1463       H  0.21265640  0.48608862  0.01095046     0.27100
H1464       H  0.21024122  0.48981064  0.91828658     0.15900
C1465       C  0.29198183  0.49242870  0.67474073    -0.11400
C1466       C  0.30754376  0.51321682  0.68084310     0.15200
C1467       C  0.31355136  0.51815774  0.70723811     0.02100
C1468       C  0.30516924  0.50129050  0.72671294    -0.15700
C1469       C  0.29036287  0.47984717  0.72054208    -0.10500
C1470       C  0.28298113  0.47599703  0.69422323     0.08800
C1471       C  0.31763542  0.52864118  0.65890156     0.09800
S1472       S  0.33218668  0.54524794  0.71727821    -0.24800
H1473       H  0.31072628  0.50470422  0.74680561     0.20100
S1474       S  0.26175255  0.45094951  0.68411005    -0.30500
H1475       H  0.28687956  0.48892400  0.65452073     0.10400
C1476       C  0.34316374  0.52649045  0.65054207     0.03600
C1477       C  0.35087773  0.53854314  0.62730301    -0.12800
C1478       C  0.33355306  0.55265020  0.61222381    -0.08500
C1479       C  0.30856422  0.55648248  0.62194840     0.07100
C1480       C  0.30075340  0.54400893  0.64481510    -0.13600
S1481       S  0.36542765  0.50685979  0.66831917    -0.30500
H1482       H  0.37009038  0.53571770  0.62010071     0.11300
S1483       S  0.28580172  0.57710331  0.60633377    -0.27600
H1484       H  0.28126320  0.54606497  0.65158147     0.08500
H1485       H  0.24521823  0.45367735  0.70570744     0.27000
H1486       H  0.38704263  0.51276359  0.65308025     0.21800
H1487       H  0.30400254  0.59536739  0.59866415     0.27100
H1488       H  0.32608950  0.56097836  0.69594537     0.15900
C1489       C  0.41736752  0.33027918  0.79903139    -0.11400
C1490       C  0.41138560  0.34151453  0.77492955     0.15200
C1491       C  0.42537937  0.33468357  0.75232486     0.02100
C1492       C  0.44425364  0.31597610  0.75414619    -0.15700
C1493       C  0.44946140  0.30396094  0.77805265    -0.10500
C1494       C  0.43618693  0.31155833  0.80083518     0.08800
C1495       C  0.38823125  0.35739671  0.77353402     0.09800
S1496       S  0.41857743  0.34738847  0.72029132    -0.24800
H1497       H  0.45411399  0.30984114  0.73656625     0.20100
S1498       S  0.44094670  0.29671654  0.83230074    -0.30500
H1499       H  0.40643458  0.33527704  0.81633146     0.10400
C1500       C  0.36428081  0.34617178  0.76921100     0.03600
C1501       C  0.34242605  0.36142272  0.76929642    -0.12800
C1502       C  0.34395517  0.38778690  0.77350662    -0.08500
C1503       C  0.36822771  0.39910600  0.77676917     0.07100
C1504       C  0.39000578  0.38371771  0.77735560    -0.13600
S1505       S  0.36152771  0.31225259  0.76421939    -0.30500
H1506       H  0.32396583  0.35263071  0.76667623     0.11300
S1507       S  0.37288227  0.43297994  0.77914189    -0.27600
H1508       H  0.40852179  0.39233405  0.78031582     0.08500
H1509       H  0.46631692  0.28928953  0.82795672     0.27000
H1510       H  0.33503138  0.31169182  0.76032155     0.21800
H1511       H  0.35490232  0.43896381  0.75973390     0.27100
H1512       H  0.40882253  0.37084688  0.72874084     0.15900
C1513       C  0.15908272  0.39385274  0.76332349    -0.11400
C1514       C  0.15917427  0.36872749  0.75420405     0.15200
C1515       C  0.18262796  0.35596818  0.75086839     0.02100
C1516       C  0.20536754  0.36874243  0.75601010    -0.15700
C1517       C  0.20547833  0.39394620  0.76503739    -0.10500
C1518       C  0.18188398  0.40644099  0.76921355     0.08800
C1519       C  0.13477994  0.35612475  0.74785960     0.09800
S1520       S  0.18491451  0.32337403  0.74004660    -0.24800
H1521       H  0.22320368  0.35880008  0.75288537     0.20100
S1522       S  0.17937176  0.43788866  0.78291601    -0.30500
H1523       H  0.14108731  0.40357854  0.76619908     0.10400
C1524       C  0.11822804  0.34721276  0.76769402     0.03600
C1525       C  0.09814317  0.33088123  0.76103702    -0.12800
C1526       C  0.09444910  0.32332413  0.73501874    -0.08500
C1527       C  0.10969131  0.33403604  0.71500969     0.07100
C1528       C  0.12967816  0.35032440  0.72162845    -0.13600
S1529       S  0.12429420  0.35431846  0.80166986    -0.30500
H1530       H  0.08661230  0.32226260  0.77629962     0.11300
S1531       S  0.10614066  0.32563901  0.68102033    -0.27600
H1532       H  0.14228446  0.35734944  0.70637110     0.08500
H1533       H  0.19750978  0.43343379  0.80259260     0.27000
H1534       H  0.10267594  0.34194895  0.81197705     0.21800
H1535       H  0.08017867  0.31929449  0.68261426     0.27100
H1536       H  0.16219469  0.31496636  0.75191273     0.15900
loop_ 
_geom_bond_atom_site_label_1 
_geom_bond_atom_site_label_2 
_geom_bond_distance 
_geom_bond_site_symmetry_2 
_ccdc_geom_bond_type 
In1           O3   2.231       .  S
In1           O4   2.251       .  S
In1          O12   2.252       .  S
In1           O6   2.237       .  S
In1           O8   2.235       .  S
In1           O9   2.247       .  S
In1          O10   2.248       .  S
In1          O13   2.236       .  S
C2            O8   1.261       .  A
C2           O10   1.262       .  A
C2         C1502   1.482       .  S
O3           C11   1.259       .  A
O4           C11   1.262       .  A
C5           O12   1.260       .  A
C5            O6   1.260       .  A
C5         C1517   1.482       .  S
C7            O9   1.262       .  A
C7           O13   1.259       .  A
C7         C1445   1.479       .  S
C11        C1469   1.481       .  S
C14        C1493   1.479       .  S
C14          C15   1.395       .  A
C14          C19   1.412       .  A
C15          C16   1.397       .  A
C15          H34   1.086       .  S
C16        C1382   1.479       .  S
C16          C17   1.412       .  A
C17          C18   1.420       .  A
C17          C24   1.406       .  A
C18          C19   1.421       .  A
C18          C23   1.417       .  A
C19          C20   1.406       .  A
C20          C21   1.393       .  A
C20          H30   1.083       .  S
C21          C22   1.405       .  A
C21          H31   1.083       .  S
C22          C23   1.420       .  A
C22          C29   1.411       .  A
C23          C26   1.421       .  A
C24          C25   1.395       .  A
C24          H32   1.082       .  S
C25          C26   1.404       .  A
C25          H33   1.083       .  S
C26          C27   1.412       .  A
C27        C1421   1.477       .  S
C27          C28   1.394       .  A
C28          C29   1.393       .  A
C28          H35   1.086       .  S
C29        C1397   1.475       .  S
C36        C1301   1.480       .  S
C36          C37   1.396       .  A
C36          C41   1.413       .  A
C37          C38   1.395       .  A
C37          H56   1.086       .  S
C38        C1526   1.478       .  S
C38          C39   1.412       .  A
C39          C40   1.420       .  A
C39          C46   1.405       .  A
C40          C41   1.420       .  A
C40          C45   1.417       .  A
C41          C42   1.406       .  A
C42          C43   1.391       .  A
C42          H52   1.081       .  S
C43          C44   1.403       .  A
C43          H53   1.083       .  S
C44          C45   1.420       .  A
C44          C51   1.410   1_455  A
C45          C48   1.420       .  A
C46          C47   1.394       .  A
C46          H54   1.083       .  S
C47          C48   1.406       .  A
C47          H55   1.082       .  S
C48          C49   1.413   1_455  A
C49        C1334   1.480       .  S
C49          C50   1.396       .  A
C50          C51   1.396       .  A
C50          H57   1.086       .  S
C51        C1358   1.480       .  S
In58         O60   2.250       .  S
In58         O61   2.247       .  S
In58         O69   2.240       .  S
In58         O63   2.240       .  S
In58         O65   2.237       .  S
In58         O66   2.251       .  S
In58         O67   2.251       .  S
In58         O70   2.247       .  S
C59          O65   1.261       .  A
C59          O67   1.260       .  A
C59        C1373   1.488       .  S
O60          C68   1.260       .  A
O61          C68   1.261       .  A
C62          O69   1.261       .  A
C62          O63   1.260       .  A
C62        C1310   1.479       .  S
C64          O66   1.261       .  A
C64          O70   1.260       .  A
C64        C1277   1.485       .  S
C68        C1262   1.485       .  S
In71         O73   2.234       .  S
In71         O74   2.229       .  S
In71         O82   2.231       .  S
In71         O76   2.251       .  S
In71         O78   2.242       .  S
In71         O79   2.243       .  S
In71         O80   2.235       .  S
In71         O83   2.229       .  S
C72          O78   1.262       .  A
C72          O80   1.259       .  A
C72        C1349   1.478       .  S
O73          C81   1.262       .  A
O74          C81   1.260       .  A
C75          O82   1.260       .  A
C75          O76   1.263       .  A
C75        C1430   1.480       .  S
C77          O79   1.262       .  A
C77          O83   1.259       .  A
C77        C1229   1.481       .  S
C81        C1214   1.478       .  S
In84         O86   2.229       .  S
In84         O87   2.248       .  S
In84         O95   2.246       .  S
In84         O89   2.246       .  S
In84         O91   2.251       .  S
In84         O92   2.243       .  S
In84         O93   2.226       .  S
In84         O96   2.249       .  S
C85          O91   1.263       .  A
C85          O93   1.260       .  A
C85        C1157   1.476       .  S
O86          C94   1.259       .  A
O87          C94   1.262       .  A
C88          O95   1.261       .  A
C88          O89   1.261       .  A
C88        C1190   1.489       .  S
C90          O92   1.261       .  A
C90          O96   1.261       .  A
C90        C1325   1.487       .  S
C94        C1406   1.476       .  S
In97         O99   2.245       .  S
In97        O100   2.238       .  S
In97        O108   2.239       .  S
In97        O102   2.248       .  S
In97        O104   2.239       .  S
In97        O105   2.254       .  S
In97        O106   2.245       .  S
In97        O109   2.214       .  S
C98         O104   1.262       .  A
C98         O106   1.262       .  A
C98        C1142   1.485       .  S
O99         C107   1.262       .  A
O100        C107   1.261       .  A
C101        O108   1.260       .  A
C101        O102   1.263       .  A
C101       C1118   1.481       .  S
C103        O105   1.263       .  A
C103        O109   1.259       .  A
C103       C1094   1.483       .  S
C107       C1181   1.485       .  S
In110       O112   2.228       .  S
In110       O113   2.246       .  S
In110       O121   2.243       .  S
In110       O115   2.255       .  S
In110       O117   2.250       .  S
In110       O118   2.237       .  S
In110       O119   2.243       .  S
In110       O122   2.246       .  S
C111        O117   1.262       .  A
C111        O119   1.260       .  A
C111       C1061   1.483       .  S
O112        C120   1.262       .  A
O113        C120   1.262       .  A
C114        O121   1.258       .  A
C114        O115   1.263       .  A
C114       C1037   1.491       .  S
C116        O118   1.260       .  A
C116        O122   1.261       .  A
C116       C1478   1.480       .  S
C120       C1013   1.479       .  S
C123       C1109   1.478       .  S
C123        C124   1.394       .  A
C123        C128   1.412       .  A
C124        C125   1.396       .  A
C124        H143   1.086       .  S
C125       C1046   1.481       .  S
C125        C126   1.413       .  A
C126        C127   1.421       .  A
C126        C133   1.405       .  A
C127        C128   1.420       .  A
C127        C132   1.418       .  A
C128        C129   1.405       .  A
C129        C130   1.394       .  A
C129        H139   1.082       .  S
C130        C131   1.406       .  A
C130        H140   1.083       .  S
C131        C132   1.421       .  A
C131        C138   1.413       .  A
C132        C135   1.420       .  A
C133        C134   1.394       .  A
C133        H141   1.083       .  S
C134        C135   1.405       .  A
C134        H142   1.083       .  S
C135        C136   1.412       .  A
C136        C974   1.479       .  S
C136        C137   1.396       .  A
C137        C138   1.396       .  A
C137        H144   1.086       .  S
C138        C998   1.479       .  S
In145       O147   2.258       .  S
In145       O148   2.227       .  S
In145       O156   2.234       .  S
In145       O150   2.254       .  S
In145       O152   2.244       .  S
In145       O153   2.253       .  S
In145       O154   2.237       .  S
In145       O157   2.245       .  S
C146        O152   1.261       .  A
C146        O154   1.259       .  A
C146        C917   1.479       .  S
O147        C155   1.261       .  A
O148        C155   1.261       .  A
C149        O156   1.260       .  A
C149        O150   1.262       .  A
C149       C1286   1.481       .  S
C151        O153   1.261       .  A
C151        O157   1.259       .  A
C151        C941   1.484   1_545  S
C155        C965   1.485       .  S
In158       O160   2.233       .  S
In158       O161   2.251       .  S
In158       O169   2.246       .  S
In158       O163   2.236       .  S
In158       O165   2.255       .  S
In158       O166   2.246       .  S
In158       O167   2.246       .  S
In158       O170   2.238       .  S
C159        O165   1.262       .  A
C159        O167   1.258       .  A
C159        C902   1.487       .  S
O160        C168   1.261       .  A
O161        C168   1.261       .  A
C162        O169   1.262       .  A
C162        O163   1.262       .  A
C162        C989   1.480       .  S
C164        O166   1.261       .  A
C164        O170   1.260       .  A
C164       C1238   1.484       .  S
C168        C869   1.485       .  S
C171       C1133   1.479       .  S
C171        C172   1.394       .  A
C171        C176   1.413       .  A
C172        C173   1.393       .  A
C172        H191   1.086       .  S
C173       C1070   1.479       .  S
C173        C174   1.414       .  A
C174        C175   1.421       .  A
C174        C181   1.405       .  A
C175        C176   1.421       .  A
C175        C180   1.419       .  A
C176        C177   1.405       .  A
C177        C178   1.395       .  A
C177        H187   1.082       .  S
C178        C179   1.406       .  A
C178        H188   1.083       .  S
C179        C180   1.421       .  A
C179        C186   1.413       .  A
C180        C183   1.421       .  A
C181        C182   1.395       .  A
C181        H189   1.083       .  S
C182        C183   1.405       .  A
C182        H190   1.083       .  S
C183        C184   1.414       .  A
C184        C950   1.481       .  S
C184        C185   1.396       .  A
C185        C186   1.395       .  A
C185        H192   1.086       .  S
C186        C893   1.480       .  S
C193        C845   1.484       .  S
C193        C194   1.395       .  A
C193        C198   1.414       .  A
C194        C195   1.395       .  A
C194        H213   1.086       .  S
C195        C821   1.479       .  S
C195        C196   1.415       .  A
C196        C197   1.421       .  A
C196        C203   1.406       .  A
C197        C198   1.423       .  A
C197        C202   1.420       .  A
C198        C199   1.405       .  A
C199        C200   1.394       .  A
C199        H209   1.082       .  S
C200        C201   1.405       .  A
C200        H210   1.084       .  S
C201        C202   1.420       .  A
C201        C208   1.412       .  A
C202        C205   1.422       .  A
C203        C204   1.397       .  A
C203        H211   1.083       .  S
C204        C205   1.405       .  A
C204        H212   1.082       .  S
C205        C206   1.416       .  A
C206        C773   1.483       .  S
C206        C207   1.395       .  A
C207        C208   1.394       .  A
C207        H214   1.086       .  S
C208        C797   1.478       .  S
C215        C725   1.482       .  S
C215        C216   1.397       .  A
C215        C220   1.415       .  A
C216        C217   1.395       .  A
C216        H235   1.086       .  S
C217        C749   1.480       .  S
C217        C218   1.411       .  A
C218        C219   1.421       .  A
C218        C225   1.404       .  A
C219        C220   1.419       .  A
C219        C224   1.418       .  A
C220        C221   1.407       .  A
C221        C222   1.394       .  A
C221        H231   1.083       .  S
C222        C223   1.404   1_655  A
C222        H232   1.083       .  S
C223        C224   1.421   1_455  A
C223        C230   1.414       .  A
C224        C227   1.418   1_655  A
C225        C226   1.392       .  A
C225        H233   1.082       .  S
C226        C227   1.405   1_655  A
C226        H234   1.083   1_655  S
C227        C228   1.409       .  A
C228        C701   1.474       .  S
C228        C229   1.395       .  A
C229        C230   1.396       .  A
C229        H236   1.086       .  S
C230        C677   1.481       .  S
In237       O239   2.248       .  S
In237       O240   2.230       .  S
In237       O248   2.244       .  S
In237       O242   2.242       .  S
In237       O244   2.241       .  S
In237       O245   2.244       .  S
In237       O246   2.233       .  S
In237       O249   2.241       .  S
C238        O244   1.260       .  A
C238        O246   1.261       .  A
C238        C926   1.481       .  S
O239        C247   1.260       .  A
O240        C247   1.261       .  A
C241        O248   1.259       .  A
C241        O242   1.261       .  A
C241        C653   1.479       .  S
C243        O245   1.260       .  A
C243        O249   1.260       .  A
C243        C806   1.483       .  S
C247        C710   1.482       .  S
In250       O252   2.238       .  S
In250       O253   2.240       .  S
In250       O261   2.244       .  S
In250       O255   2.254       .  S
In250       O257   2.244       .  S
In250       O258   2.246       .  S
In250       O259   2.252       .  S
In250       O262   2.236       .  S
C251        O257   1.263       .  A
C251        O259   1.260       .  A
C251        C782   1.488       .  S
O252        C260   1.260       .  A
O253        C260   1.262       .  A
C254        O261   1.258       .  A
C254        O255   1.262       .  A
C254        C686   1.489       .  S
C256        O258   1.260       .  A
C256        O262   1.260       .  A
C256        C638   1.475       .  S
C260       C1022   1.483       .  S
In263       O265   2.233       .  S
In263       O266   2.261       .  S
In263       O274   2.240       .  S
In263       O268   2.248       .  S
In263       O270   2.251       .  S
In263       O271   2.254       .  S
In263       O272   2.252       .  S
In263       O275   2.233       .  S
C264        O270   1.262       .  A
C264        O272   1.260       .  A
C264        C854   1.493       .  S
O265        C273   1.259       .  A
O266        C273   1.263       .  A
C267        O274   1.260       .  A
C267        O268   1.263       .  A
C267        C758   1.481       .  S
C269        O271   1.262       .  A
C269        O275   1.260       .  A
C269        C614   1.483       .  S
C273        C878   1.486       .  S
In276       O278   2.235       .  S
In276       O279   2.254       .  S
In276       O287   2.241       .  S
In276       O281   2.243       .  S
In276       O283   2.218       .  S
In276       O284   2.248       .  S
In276       O285   2.243       .  S
In276       O288   2.237       .  S
C277        O283   1.260       .  A
C277        O285   1.262       .  A
C277       C1085   1.478       .  S
O278        C286   1.258       .  A
O279        C286   1.260       .  A
C280        O287   1.261       .  A
C280        O281   1.257       .  A
C280        C590   1.485       .  S
C282        O284   1.263       .  A
C282        O288   1.259       .  A
C282        C830   1.485       .  S
C286        C734   1.483       .  S
In289       O291   2.245       .  S
In289       O292   2.238       .  S
In289       O300   2.221   1_554  S
In289       O294   2.253       .  S
In289       O296   2.235       .  S
In289       O297   2.252       .  S
In289       O298   2.245       .  S
In289       O301   2.227       .  S
C290        O296   1.261       .  A
C290        O298   1.262       .  A
C290        C581   1.480       .  S
O291        C299   1.260       .  A
O292        C299   1.261       .  A
C293        O300   1.258       .  A
C293        O294   1.263   1_556  A
C293       C1166   1.470       .  S
C295        O297   1.266       .  A
C295        O301   1.259       .  A
C295        C566   1.486       .  S
C299        C533   1.475       .  S
In302       O304   2.233       .  S
In302       O305   2.248       .  S
In302       O313   2.239       .  S
In302       O307   2.249       .  S
In302       O309   2.234       .  S
In302       O310   2.243       .  S
In302       O311   2.253       .  S
In302       O314   2.242       .  S
C303        O309   1.257       .  A
C303        O311   1.261       .  A
C303        C485   1.486       .  S
O304        C312   1.261       .  A
O305        C312   1.261       .  A
C306        O313   1.259       .  A
C306        O307   1.262       .  A
C306        C518   1.485       .  S
C308        O310   1.260       .  A
C308        O314   1.259       .  A
C308        C629   1.482       .  S
C312       C1454   1.480   1_554  S
C315        C494   1.477       .  S
C315        C316   1.394   1_455  A
C315        C320   1.412       .  A
C316        C317   1.395       .  A
C316        H335   1.086       .  S
C317        C542   1.482       .  S
C317        C318   1.413       .  A
C318        C319   1.421       .  A
C318        C325   1.405       .  A
C319        C320   1.420   1_655  A
C319        C324   1.417       .  A
C320        C321   1.406       .  A
C321        C322   1.395       .  A
C321        H331   1.083       .  S
C322        C323   1.405       .  A
C322        H332   1.082       .  S
C323        C324   1.421   1_455  A
C323        C330   1.413       .  A
C324        C327   1.420       .  A
C325        C326   1.393       .  A
C325        H333   1.082       .  S
C326        C327   1.405       .  A
C326        H334   1.083       .  S
C327        C328   1.411       .  A
C328        C470   1.476       .  S
C328        C329   1.394       .  A
C329        C330   1.393   1_655  A
C329        H336   1.086       .  S
C330        C437   1.478       .  S
In337       O339   2.237       .  S
In337       O340   2.250       .  S
In337       O348   2.238       .  S
In337       O342   2.237       .  S
In337       O344   2.251       .  S
In337       O345   2.249       .  S
In337       O346   2.240       .  S
In337       O349   2.237       .  S
C338        O344   1.261       .  A
C338        O346   1.260       .  A
C338       C1253   1.485       .  S
O339        C347   1.258       .  A
O340        C347   1.262       .  A
C341        O348   1.260   1_554  A
C341        O342   1.263   1_554  A
C341        C662   1.483       .  S
C343        O345   1.263       .  A
C343        O349   1.260       .  A
C343        C446   1.481   1_565  S
C347        C413   1.484       .  S
In350       O352   2.225       .  S
In350       O353   2.243       .  S
In350       O361   2.249       .  S
In350       O355   2.238       .  S
In350       O357   2.242       .  S
In350       O358   2.248       .  S
In350       O359   2.234       .  S
In350       O362   2.224   1_556  S
C351        O357   1.263       .  A
C351        O359   1.260       .  A
C351        C461   1.476   1_565  S
O352        C360   1.259       .  A
O353        C360   1.263       .  A
C354        O361   1.260       .  A
C354        O355   1.262       .  A
C354        C389   1.485       .  S
C356        O358   1.263   1_554  A
C356        O362   1.260       .  A
C356        C605   1.476       .  S
C360       C1205   1.480       .  S
C363        C557   1.477       .  S
C363        C364   1.394       .  A
C363        C368   1.412       .  A
C364        C365   1.394   1_655  A
C364        H383   1.086       .  S
C365        C509   1.479       .  S
C365        C366   1.414       .  A
C366        C367   1.422   1_455  A
C366        C373   1.405       .  A
C367        C368   1.420       .  A
C367        C372   1.418       .  A
C368        C369   1.405       .  A
C369        C370   1.394       .  A
C369        H379   1.083       .  S
C370        C371   1.405       .  A
C370        H380   1.082       .  S
C371        C372   1.422       .  A
C371        C378   1.413       .  A
C372        C375   1.420   1_655  A
C373        C374   1.395       .  A
C373        H381   1.082       .  S
C374        C375   1.406       .  A
C374        H382   1.083       .  S
C375        C376   1.413       .  A
C376        C422   1.480       .  S
C376        C377   1.396   1_455  A
C377        C378   1.394       .  A
C377        H384   1.086       .  S
C378        C398   1.481       .  S
C385        C386   1.401       .  A
C385        C390   1.403       .  A
C385        H395   1.084       .  S
C386        C391   1.478       .  S
C386        C387   1.411       .  A
C387        C388   1.396       .  A
C387        S392   1.805       .  S
C388        C389   1.405       .  A
C388        H393   1.084       .  S
C389        C390   1.419       .  A
C390        S394   1.801       .  S
C391        C396   1.409       .  A
C391        C400   1.401       .  A
S392        H408   1.404       .  S
S394        H405   1.408       .  S
C396        C397   1.402       .  A
C396        S401   1.806   1_556  S
C397        C398   1.402       .  A
C397        H402   1.083       .  S
C398        C399   1.413       .  A
C399        C400   1.400       .  A
C399        S403   1.803       .  S
C400        H404   1.083       .  S
S401        H406   1.407       .  S
S403        H407   1.406       .  S
C409        C410   1.399       .  A
C409        C414   1.401       .  A
C409        H419   1.084       .  S
C410        C415   1.475       .  S
C410        C411   1.412       .  A
C411        C412   1.397       .  A
C411        S416   1.807       .  S
C412        C413   1.405       .  A
C412        H417   1.084       .  S
C413        C414   1.419       .  A
C414        S418   1.801       .  S
C415        C420   1.406       .  A
C415        C424   1.402       .  A
S416        H432   1.403       .  S
S418        H429   1.408       .  S
C420        C421   1.400       .  A
C420        S425   1.806       .  S
C421        C422   1.404       .  A
C421        H426   1.083       .  S
C422        C423   1.414       .  A
C423        C424   1.400       .  A
C423        S427   1.804   1_556  S
C424        H428   1.084       .  S
S425        H430   1.407       .  S
S427        H431   1.405       .  S
C433        C434   1.402       .  A
C433        C438   1.400       .  A
C433        H443   1.084       .  S
C434        C439   1.478       .  S
C434        C435   1.412   1_556  A
C435        C436   1.398       .  A
C435        S440   1.804       .  S
C436        C437   1.401       .  A
C436        H441   1.084       .  S
C437        C438   1.413   1_554  A
C438        S442   1.804       .  S
C439        C444   1.409       .  A
C439        C448   1.400       .  A
S440        H456   1.405       .  S
S442        H453   1.405       .  S
C444        C445   1.402       .  A
C444        S449   1.808       .  S
C445        C446   1.405       .  A
C445        H450   1.083       .  S
C446        C447   1.417       .  A
C447        C448   1.400       .  A
C447        S451   1.802       .  S
C448        H452   1.084       .  S
S449        H454   1.407       .  S
S451        H455   1.408       .  S
C457        C458   1.400       .  A
C457        C462   1.400       .  A
C457        H467   1.084       .  S
C458        C463   1.474       .  S
C458        C459   1.412   1_554  A
C459        C460   1.396       .  A
C459        S464   1.806       .  S
C460        C461   1.403       .  A
C460        H465   1.084       .  S
C461        C462   1.416   1_556  A
C462        S466   1.803       .  S
C463        C468   1.409   1_554  A
C463        C472   1.400       .  A
S464        H480   1.405       .  S
S466        H477   1.407   1_545  S
C468        C469   1.402       .  A
C468        S473   1.805       .  S
C469        C470   1.402   1_556  A
C469        H474   1.083       .  S
C470        C471   1.413       .  A
C471        C472   1.395       .  A
C471        S475   1.804       .  S
C472        H476   1.084       .  S
S473        H478   1.407       .  S
S475        H479   1.406       .  S
C481        C482   1.400       .  A
C481        C486   1.395       .  A
C481        H491   1.085       .  S
C482        C487   1.475       .  S
C482        C483   1.411       .  A
C483        C484   1.401       .  A
C483        S488   1.807       .  S
C484        C485   1.409       .  A
C484        H489   1.083       .  S
C485        C486   1.418       .  A
C486        S490   1.801       .  S
C487        C492   1.408       .  A
C487        C496   1.402       .  A
S488        H504   1.401       .  S
S490        H501   1.408       .  S
C492        C493   1.401       .  A
C492        S497   1.806       .  S
C493        C494   1.404       .  A
C493        H498   1.083       .  S
C494        C495   1.412       .  A
C495        C496   1.398       .  A
C495        S499   1.805   1_554  S
C496        H500   1.084       .  S
S497        H502   1.407       .  S
S499        H503   1.405       .  S
C505        C506   1.403   1_556  A
C505        C510   1.400       .  A
C505        H515   1.084       .  S
C506        C511   1.480       .  S
C506        C507   1.413       .  A
C507        C508   1.399       .  A
C507        S512   1.804       .  S
C508        C509   1.402   1_554  A
C508        H513   1.084       .  S
C509        C510   1.412       .  A
C510        S514   1.803       .  S
C511        C516   1.410       .  A
C511        C520   1.400       .  A
S512        H528   1.405       .  S
S514        H525   1.404       .  S
C516        C517   1.402       .  A
C516        S521   1.808       .  S
C517        C518   1.406       .  A
C517        H522   1.082       .  S
C518        C519   1.418       .  A
C519        C520   1.404       .  A
C519        S523   1.809       .  S
C520        H524   1.082   1_554  S
S521        H526   1.407       .  S
S523        H527   1.406   1_554  S
C529        C530   1.402       .  A
C529        C534   1.395       .  A
C529        H539   1.084       .  S
C530        C535   1.480       .  S
C530        C531   1.412       .  A
C531        C532   1.402       .  A
C531        S536   1.804       .  S
C532        C533   1.405       .  A
C532        H537   1.084       .  S
C533        C534   1.412       .  A
C534        S538   1.803       .  S
C535        C540   1.411       .  A
C535        C544   1.402       .  A
S536        H552   1.406       .  S
S538        H549   1.408   1_554  S
C540        C541   1.401       .  A
C540        S545   1.807   1_554  S
C541        C542   1.403       .  A
C541        H546   1.083       .  S
C542        C543   1.414       .  A
C543        C544   1.398       .  A
C543        S547   1.804       .  S
C544        H548   1.084       .  S
S545        H550   1.407       .  S
S547        H551   1.406       .  S
C553        C554   1.401   1_554  A
C553        C558   1.399       .  A
C553        H563   1.084       .  S
C554        C559   1.477   1_556  S
C554        C555   1.412       .  A
C555        C556   1.398       .  A
C555        S560   1.804       .  S
C556        C557   1.402       .  A
C556        H561   1.084       .  S
C557        C558   1.412   1_556  A
C558        S562   1.804       .  S
C559        C564   1.408       .  A
C559        C568   1.398       .  A
S560        H576   1.405       .  S
S562        H573   1.404       .  S
C564        C565   1.401       .  A
C564        S569   1.808       .  S
C565        C566   1.406       .  A
C565        H570   1.082       .  S
C566        C567   1.420       .  A
C567        C568   1.404       .  A
C567        S571   1.808       .  S
C568        H572   1.083       .  S
S569        H574   1.407       .  S
S571        H575   1.407       .  S
C577        C578   1.401       .  A
C577        C582   1.400       .  A
C577        H587   1.084       .  S
C578        C583   1.478       .  S
C578        C579   1.411       .  A
C579        C580   1.397       .  A
C579        S584   1.805       .  S
C580        C581   1.405       .  A
C580        H585   1.084       .  S
C581        C582   1.416       .  A
C582        S586   1.802       .  S
C583        C588   1.407       .  A
C583        C592   1.400       .  A
S584        H600   1.406       .  S
S586        H597   1.408       .  S
C588        C589   1.398       .  A
C588        S593   1.808       .  S
C589        C590   1.405       .  A
C589        H594   1.082       .  S
C590        C591   1.420       .  A
C591        C592   1.406       .  A
C591        S595   1.809       .  S
C592        H596   1.083       .  S
S593        H598   1.406       .  S
S595        H599   1.407       .  S
C601        C602   1.402       .  A
C601        C606   1.397       .  A
C601        H611   1.084       .  S
C602        C607   1.480       .  S
C602        C603   1.412       .  A
C603        C604   1.400       .  A
C603        S608   1.803       .  S
C604        C605   1.404       .  A
C604        H609   1.084       .  S
C605        C606   1.414       .  A
C606        S610   1.804       .  S
C607        C612   1.408       .  A
C607        C616   1.402       .  A
S608        H624   1.406       .  S
S610        H621   1.408       .  S
C612        C613   1.402       .  A
C612        S617   1.807       .  S
C613        C614   1.407       .  A
C613        H618   1.082       .  S
C614        C615   1.416       .  A
C615        C616   1.400       .  A
C615        S619   1.801       .  S
C616        H620   1.084       .  S
S617        H622   1.407       .  S
S619        H623   1.407       .  S
C625        C626   1.400       .  A
C625        C630   1.396       .  A
C625        H635   1.084       .  S
C626        C631   1.476       .  S
C626        C627   1.410       .  A
C627        C628   1.400       .  A
C627        S632   1.804       .  S
C628        C629   1.407       .  A
C628        H633   1.084       .  S
C629        C630   1.417       .  A
C630        S634   1.802       .  S
C631        C636   1.409       .  A
C631        C640   1.401       .  A
S632        H648   1.405       .  S
S634        H645   1.408       .  S
C636        C637   1.400       .  A
C636        S641   1.807       .  S
C637        C638   1.403       .  A
C637        H642   1.083       .  S
C638        C639   1.415       .  A
C639        C640   1.400       .  A
C639        S643   1.802       .  S
C640        H644   1.084       .  S
S641        H646   1.407       .  S
S643        H647   1.408       .  S
C649        C650   1.402       .  A
C649        C654   1.399       .  A
C649        H659   1.083       .  S
C650        C655   1.479       .  S
C650        C651   1.411       .  A
C651        C652   1.398       .  A
C651        S656   1.804       .  S
C652        C653   1.404       .  A
C652        H657   1.083       .  S
C653        C654   1.416       .  A
C654        S658   1.802       .  S
C655        C660   1.408       .  A
C655        C664   1.401       .  A
S656        H672   1.406       .  S
S658        H669   1.408       .  S
C660        C661   1.401       .  A
C660        S665   1.807       .  S
C661        C662   1.406       .  A
C661        H666   1.082       .  S
C662        C663   1.418       .  A
C663        C664   1.399       .  A
C663        S667   1.802       .  S
C664        H668   1.083       .  S
S665        H670   1.407       .  S
S667        H671   1.408       .  S
C673        C674   1.403       .  A
C673        C678   1.401       .  A
C673        H683   1.084       .  S
C674        C679   1.481       .  S
C674        C675   1.413       .  A
C675        C676   1.400       .  A
C675        S680   1.804       .  S
C676        C677   1.402       .  A
C676        H681   1.084       .  S
C677        C678   1.412       .  A
C678        S682   1.803       .  S
C679        C684   1.409       .  A
C679        C688   1.400       .  A
S680        H696   1.406       .  S
S682        H693   1.406       .  S
C684        C685   1.402       .  A
C684        S689   1.808       .  S
C685        C686   1.407       .  A
C685        H690   1.082       .  S
C686        C687   1.420       .  A
C687        C688   1.402       .  A
C687        S691   1.801       .  S
C688        H692   1.084       .  S
S689        H694   1.406       .  S
S691        H695   1.408       .  S
C697        C698   1.402       .  A
C697        C702   1.399       .  A
C697        H707   1.083       .  S
C698        C703   1.473       .  S
C698        C699   1.408       .  A
C699        C700   1.401       .  A
C699        S704   1.805       .  S
C700        C701   1.401       .  A
C700        H705   1.083       .  S
C701        C702   1.408       .  A
C702        S706   1.807       .  S
C703        C708   1.406       .  A
C703        C712   1.400       .  A
S704        H720   1.407       .  S
S706        H717   1.407       .  S
C708        C709   1.396       .  A
C708        S713   1.809       .  S
C709        C710   1.405       .  A
C709        H714   1.082       .  S
C710        C711   1.418       .  A
C711        C712   1.406       .  A
C711        S715   1.808       .  S
C712        H716   1.082       .  S
S713        H718   1.406       .  S
S715        H719   1.407       .  S
C721        C722   1.403       .  A
C721        C726   1.397       .  A
C721        H731   1.084       .  S
C722        C727   1.479       .  S
C722        C723   1.412       .  A
C723        C724   1.398       .  A
C723        S728   1.803       .  S
C724        C725   1.403       .  A
C724        H729   1.084       .  S
C725        C726   1.413       .  A
C726        S730   1.805       .  S
C727        C732   1.407       .  A
C727        C736   1.402       .  A
S728        H744   1.406       .  S
S730        H741   1.406       .  S
C732        C733   1.401       .  A
C732        S737   1.807       .  S
C733        C734   1.408       .  A
C733        H738   1.082       .  S
C734        C735   1.415       .  A
C735        C736   1.398       .  A
C735        S739   1.799       .  S
C736        H740   1.084       .  S
S737        H742   1.407       .  S
S739        H743   1.407       .  S
C745        C746   1.402       .  A
C745        C750   1.399       .  A
C745        H755   1.084       .  S
C746        C751   1.478       .  S
C746        C747   1.413       .  A
C747        C748   1.399       .  A
C747        S752   1.804       .  S
C748        C749   1.402       .  A
C748        H753   1.084       .  S
C749        C750   1.412       .  A
C750        S754   1.803       .  S
C751        C756   1.409       .  A
C751        C760   1.400       .  A
S752        H768   1.405       .  S
S754        H765   1.406       .  S
C756        C757   1.401       .  A
C756        S761   1.808       .  S
C757        C758   1.404       .  A
C757        H762   1.082       .  S
C758        C759   1.417       .  A
C759        C760   1.402       .  A
C759        S763   1.802       .  S
C760        H764   1.083       .  S
S761        H766   1.406       .  S
S763        H767   1.408       .  S
C769        C770   1.404       .  A
C769        C774   1.406       .  A
C769        H779   1.083       .  S
C770        C775   1.482       .  S
C770        C771   1.413       .  A
C771        C772   1.399       .  A
C771        S776   1.805       .  S
C772        C773   1.402       .  A
C772        H777   1.084       .  S
C773        C774   1.410       .  A
C774        S778   1.805       .  S
C775        C780   1.408       .  A
C775        C784   1.401       .  A
S776        H792   1.405       .  S
S778        H789   1.407       .  S
C780        C781   1.401       .  A
C780        S785   1.807       .  S
C781        C782   1.406       .  A
C781        H786   1.082       .  S
C782        C783   1.420       .  A
C783        C784   1.404       .  A
C783        S787   1.801       .  S
C784        H788   1.084       .  S
S785        H790   1.407       .  S
S787        H791   1.407       .  S
C793        C794   1.402       .  A
C793        C798   1.396       .  A
C793        H803   1.084       .  S
C794        C799   1.480       .  S
C794        C795   1.414       .  A
C795        C796   1.400       .  A
C795        S800   1.804       .  S
C796        C797   1.402       .  A
C796        H801   1.084       .  S
C797        C798   1.411       .  A
C798        S802   1.804       .  S
C799        C804   1.408       .  A
C799        C808   1.401       .  A
S800        H816   1.406       .  S
S802        H813   1.405       .  S
C804        C805   1.402       .  A
C804        S809   1.807       .  S
C805        C806   1.407       .  A
C805        H810   1.082       .  S
C806        C807   1.417       .  A
C807        C808   1.398       .  A
C807        S811   1.802       .  S
C808        H812   1.084       .  S
S809        H814   1.407       .  S
S811        H815   1.408       .  S
C817        C818   1.402       .  A
C817        C822   1.399       .  A
C817        H827   1.084       .  S
C818        C823   1.479       .  S
C818        C819   1.411       .  A
C819        C820   1.400       .  A
C819        S824   1.804       .  S
C820        C821   1.404       .  A
C820        H825   1.083       .  S
C821        C822   1.412       .  A
C822        S826   1.804       .  S
C823        C828   1.409       .  A
C823        C832   1.399       .  A
S824        H840   1.405       .  S
S826        H837   1.405       .  S
C828        C829   1.402       .  A
C828        S833   1.808       .  S
C829        C830   1.406       .  A
C829        H834   1.082       .  S
C830        C831   1.419       .  A
C831        C832   1.400       .  A
C831        S835   1.802       .  S
C832        H836   1.084       .  S
S833        H838   1.407       .  S
S835        H839   1.408       .  S
C841        C842   1.402       .  A
C841        C846   1.400       .  A
C841        H851   1.084       .  S
C842        C847   1.482       .  S
C842        C843   1.413       .  A
C843        C844   1.401       .  A
C843        S848   1.804       .  S
C844        C845   1.403       .  A
C844        H849   1.084       .  S
C845        C846   1.413       .  A
C846        S850   1.803       .  S
C847        C852   1.407       .  A
C847        C856   1.400       .  A
S848        H864   1.405       .  S
S850        H861   1.406       .  S
C852        C853   1.402       .  A
C852        S857   1.808       .  S
C853        C854   1.408       .  A
C853        H858   1.082       .  S
C854        C855   1.422       .  A
C855        C856   1.407       .  A
C855        S859   1.808       .  S
C856        H860   1.082       .  S
S857        H862   1.406       .  S
S859        H863   1.407       .  S
C865        C866   1.403       .  A
C865        C870   1.403       .  A
C865        H875   1.084       .  S
C866        C871   1.482       .  S
C866        C867   1.410       .  A
C867        C868   1.396       .  A
C867        S872   1.804       .  S
C868        C869   1.405       .  A
C868        H873   1.084       .  S
C869        C870   1.418       .  A
C870        S874   1.801       .  S
C871        C876   1.408       .  A
C871        C880   1.400   1_545  A
S872        H888   1.406       .  S
S874        H885   1.408       .  S
C876        C877   1.407   1_545  A
C876        S881   1.805       .  S
C877        C878   1.409       .  A
C877        H882   1.083       .  S
C878        C879   1.417       .  A
C879        C880   1.396       .  A
C879        S883   1.802       .  S
C880        H884   1.085       .  S
S881        H886   1.407       .  S
S883        H887   1.408       .  S
C889        C890   1.401       .  A
C889        C894   1.398       .  A
C889        H899   1.084       .  S
C890        C895   1.480       .  S
C890        C891   1.413       .  A
C891        C892   1.402       .  A
C891        S896   1.803       .  S
C892        C893   1.403       .  A
C892        H897   1.084       .  S
C893        C894   1.411       .  A
C894        S898   1.803       .  S
C895        C900   1.409       .  A
C895        C904   1.400       .  A
S896        H912   1.404       .  S
S898        H909   1.405       .  S
C900        C901   1.402   1_565  A
C900        S905   1.808       .  S
C901        C902   1.406       .  A
C901        H906   1.083       .  S
C902        C903   1.420   1_545  A
C903        C904   1.402       .  A
C903        S907   1.801       .  S
C904        H908   1.084       .  S
S905        H910   1.407   1_565  S
S907        H911   1.408   1_565  S
C913        C914   1.401       .  A
C913        C918   1.399       .  A
C913        H923   1.084       .  S
C914        C919   1.473       .  S
C914        C915   1.410       .  A
C915        C916   1.396       .  A
C915        S920   1.805       .  S
C916        C917   1.405       .  A
C916        H921   1.083       .  S
C917        C918   1.415       .  A
C918        S922   1.802       .  S
C919        C924   1.407   1_545  A
C919        C928   1.399       .  A
S920        H936   1.405       .  S
S922        H933   1.408       .  S
C924        C925   1.398       .  A
C924        S929   1.808       .  S
C925        C926   1.406       .  A
C925        H930   1.082       .  S
C926        C927   1.418       .  A
C927        C928   1.400   1_565  A
C927        S931   1.801   1_565  S
C928        H932   1.084       .  S
S929        H934   1.407       .  S
S931        H935   1.407   1_545  S
C937        C938   1.401       .  A
C937        C942   1.401       .  A
C937        H947   1.084       .  S
C938        C943   1.480       .  S
C938        C939   1.413       .  A
C939        C940   1.399       .  A
C939        S944   1.806       .  S
C940        C941   1.405       .  A
C940        H945   1.084   1_565  S
C941        C942   1.417       .  A
C942        S946   1.802       .  S
C943        C948   1.410       .  A
C943        C952   1.401       .  A
S944        H960   1.405       .  S
S946        H957   1.408       .  S
C948        C949   1.404       .  A
C948        S953   1.805       .  S
C949        C950   1.403       .  A
C949        H954   1.083       .  S
C950        C951   1.412       .  A
C951        C952   1.399       .  A
C951        S955   1.802       .  S
C952        H956   1.084       .  S
S953        H958   1.407       .  S
S955        H959   1.405       .  S
C961        C962   1.403       .  A
C961        C966   1.404       .  A
C961        H971   1.084       .  S
C962        C967   1.478       .  S
C962        C963   1.410       .  A
C963        C964   1.393       .  A
C963        S968   1.806       .  S
C964        C965   1.405       .  A
C964        H969   1.084       .  S
C965        C966   1.419       .  A
C966        S970   1.801       .  S
C967        C972   1.410       .  A
C967        C976   1.402       .  A
S968        H984   1.405       .  S
S970        H981   1.407       .  S
C972        C973   1.404       .  A
C972        S977   1.806       .  S
C973        C974   1.403       .  A
C973        H978   1.083       .  S
C974        C975   1.411       .  A
C975        C976   1.397       .  A
C975        S979   1.804       .  S
C976        H980   1.084       .  S
S977        H982   1.407       .  S
S979        H983   1.405       .  S
C985        C986   1.403       .  A
C985        C990   1.397       .  A
C985        H995   1.085       .  S
C986        C991   1.482       .  S
C986        C987   1.412       .  A
C987        C988   1.401       .  A
C987        S992   1.804       .  S
C988        C989   1.406       .  A
C988        H993   1.084       .  S
C989        C990   1.414       .  A
C990        S994   1.803       .  S
C991        C996   1.411       .  A
C991       C1000   1.404       .  A
S992       H1008   1.406       .  S
S994       H1005   1.408       .  S
C996        C997   1.402       .  A
C996       S1001   1.807       .  S
C997        C998   1.402       .  A
C997       H1002   1.083       .  S
C998        C999   1.408       .  A
C999       C1000   1.402       .  A
C999       S1003   1.806       .  S
C1000      H1004   1.083       .  S
S1001      H1006   1.407       .  S
S1003      H1007   1.407       .  S
C1009      C1010   1.403       .  A
C1009      C1014   1.400       .  A
C1009      H1019   1.084       .  S
C1010      C1015   1.479       .  S
C1010      C1011   1.411       .  A
C1011      C1012   1.396       .  A
C1011      S1016   1.805       .  S
C1012      C1013   1.404       .  A
C1012      H1017   1.084       .  S
C1013      C1014   1.416       .  A
C1014      S1018   1.801       .  S
C1015      C1020   1.409       .  A
C1015      C1024   1.401       .  A
S1016      H1032   1.406       .  S
S1018      H1029   1.407       .  S
C1020      C1021   1.400       .  A
C1020      S1025   1.807       .  S
C1021      C1022   1.406       .  A
C1021      H1026   1.083       .  S
C1022      C1023   1.418       .  A
C1023      C1024   1.399       .  A
C1023      S1027   1.802       .  S
C1024      H1028   1.084       .  S
S1025      H1030   1.407       .  S
S1027      H1031   1.408       .  S
C1033      C1034   1.400       .  A
C1033      C1038   1.406       .  A
C1033      H1043   1.083       .  S
C1034      C1039   1.481       .  S
C1034      C1035   1.412       .  A
C1035      C1036   1.397       .  A
C1035      S1040   1.807       .  S
C1036      C1037   1.406       .  A
C1036      H1041   1.084       .  S
C1037      C1038   1.422       .  A
C1038      S1042   1.809       .  S
C1039      C1044   1.411       .  A
C1039      C1048   1.402       .  A
S1040      H1056   1.406       .  S
S1042      H1053   1.407       .  S
C1044      C1045   1.403       .  A
C1044      S1049   1.805       .  S
C1045      C1046   1.403       .  A
C1045      H1050   1.083       .  S
C1046      C1047   1.411       .  A
C1047      C1048   1.397       .  A
C1047      S1051   1.803       .  S
C1048      H1052   1.084       .  S
S1049      H1054   1.407       .  S
S1051      H1055   1.407       .  S
C1057      C1058   1.402       .  A
C1057      C1062   1.404       .  A
C1057      H1067   1.083       .  S
C1058      C1063   1.479       .  S
C1058      C1059   1.409       .  A
C1059      C1060   1.400       .  A
C1059      S1064   1.803       .  S
C1060      C1061   1.407       .  A
C1060      H1065   1.084       .  S
C1061      C1062   1.415       .  A
C1062      S1066   1.808       .  S
C1063      C1068   1.409       .  A
C1063      C1072   1.401       .  A
S1064      H1080   1.406       .  S
S1066      H1077   1.407       .  S
C1068      C1069   1.404       .  A
C1068      S1073   1.805       .  S
C1069      C1070   1.403       .  A
C1069      H1074   1.083       .  S
C1070      C1071   1.413       .  A
C1071      C1072   1.398       .  A
C1071      S1075   1.805       .  S
C1072      H1076   1.084       .  S
S1073      H1078   1.407       .  S
S1075      H1079   1.403       .  S
C1081      C1082   1.399       .  A
C1081      C1086   1.394       .  A
C1081      H1091   1.085       .  S
C1082      C1087   1.472       .  S
C1082      C1083   1.411       .  A
C1083      C1084   1.399       .  A
C1083      S1088   1.806       .  S
C1084      C1085   1.406       .  A
C1084      H1089   1.084       .  S
C1085      C1086   1.416       .  A
C1086      S1090   1.803       .  S
C1087      C1092   1.404       .  A
C1087      C1096   1.401       .  A
S1088      H1104   1.404       .  S
S1090      H1101   1.408       .  S
C1092      C1093   1.395       .  A
C1092      S1097   1.808       .  S
C1093      C1094   1.407       .  A
C1093      H1098   1.082       .  S
C1094      C1095   1.418       .  A
C1095      C1096   1.405       .  A
C1095      S1099   1.808       .  S
C1096      H1100   1.083       .  S
S1097      H1102   1.407       .  S
S1099      H1103   1.407       .  S
C1105      C1106   1.400       .  A
C1105      C1110   1.396       .  A
C1105      H1115   1.084       .  S
C1106      C1111   1.478       .  S
C1106      C1107   1.414       .  A
C1107      C1108   1.402       .  A
C1107      S1112   1.804       .  S
C1108      C1109   1.403       .  A
C1108      H1113   1.084       .  S
C1109      C1110   1.412       .  A
C1110      S1114   1.803       .  S
C1111      C1116   1.409       .  A
C1111      C1120   1.400       .  A
S1112      H1128   1.405       .  S
S1114      H1125   1.403       .  S
C1116      C1117   1.402       .  A
C1116      S1121   1.808       .  S
C1117      C1118   1.405       .  A
C1117      H1122   1.082       .  S
C1118      C1119   1.417       .  A
C1119      C1120   1.399       .  A
C1119      S1123   1.802       .  S
C1120      H1124   1.084       .  S
S1121      H1126   1.407       .  S
S1123      H1127   1.408       .  S
C1129      C1130   1.403       .  A
C1129      C1134   1.400       .  A
C1129      H1139   1.084       .  S
C1130      C1135   1.479       .  S
C1130      C1131   1.413       .  A
C1131      C1132   1.398       .  A
C1131      S1136   1.805       .  S
C1132      C1133   1.402       .  A
C1132      H1137   1.085       .  S
C1133      C1134   1.411       .  A
C1134      S1138   1.803       .  S
C1135      C1140   1.407       .  A
C1135      C1144   1.401       .  A
S1136      H1152   1.405       .  S
S1138      H1149   1.405       .  S
C1140      C1141   1.404       .  A
C1140      S1145   1.806       .  S
C1141      C1142   1.408       .  A
C1141      H1146   1.083       .  S
C1142      C1143   1.416       .  A
C1143      C1144   1.399       .  A
C1143      S1147   1.802       .  S
C1144      H1148   1.084       .  S
S1145      H1150   1.406       .  S
S1147      H1151   1.408       .  S
C1153      C1154   1.401       .  A
C1153      C1158   1.396       .  A
C1153      H1163   1.084       .  S
C1154      C1159   1.479       .  S
C1154      C1155   1.413       .  A
C1155      C1156   1.400       .  A
C1155      S1160   1.804       .  S
C1156      C1157   1.404       .  A
C1156      H1161   1.084       .  S
C1157      C1158   1.415       .  A
C1158      S1162   1.804       .  S
C1159      C1164   1.411       .  A
C1159      C1168   1.401       .  A
S1160      H1176   1.406       .  S
S1162      H1173   1.408       .  S
C1164      C1165   1.403       .  A
C1164      S1169   1.806       .  S
C1165      C1166   1.402       .  A
C1165      H1170   1.083       .  S
C1166      C1167   1.413       .  A
C1167      C1168   1.396       .  A
C1167      S1171   1.805       .  S
C1168      H1172   1.084       .  S
S1169      H1174   1.406       .  S
S1171      H1175   1.407       .  S
C1177      C1178   1.400       .  A
C1177      C1182   1.399       .  A
C1177      H1187   1.084       .  S
C1178      C1183   1.478       .  S
C1178      C1179   1.411       .  A
C1179      C1180   1.399       .  A
C1179      S1184   1.805       .  S
C1180      C1181   1.407       .  A
C1180      H1185   1.084       .  S
C1181      C1182   1.417       .  A
C1182      S1186   1.801       .  S
C1183      C1188   1.407       .  A
C1183      C1192   1.399       .  A
S1184      H1200   1.405       .  S
S1186      H1197   1.408       .  S
C1188      C1189   1.402       .  A
C1188      S1193   1.807       .  S
C1189      C1190   1.408       .  A
C1189      H1194   1.083       .  S
C1190      C1191   1.419       .  A
C1191      C1192   1.405       .  A
C1191      S1195   1.808       .  S
C1192      H1196   1.083       .  S
S1193      H1198   1.407       .  S
S1195      H1199   1.407       .  S
C1201      C1202   1.399       .  A
C1201      C1206   1.396   1_545  A
C1201      H1211   1.084       .  S
C1202      C1207   1.473       .  S
C1202      C1203   1.410       .  A
C1203      C1204   1.397   1_545  A
C1203      S1208   1.805       .  S
C1204      C1205   1.406       .  A
C1204      H1209   1.083       .  S
C1205      C1206   1.418       .  A
C1206      S1210   1.802       .  S
C1207      C1212   1.407       .  A
C1207      C1216   1.399       .  A
S1208      H1224   1.405       .  S
S1210      H1221   1.407       .  S
C1212      C1213   1.399       .  A
C1212      S1217   1.808       .  S
C1213      C1214   1.406       .  A
C1213      H1218   1.083       .  S
C1214      C1215   1.417       .  A
C1215      C1216   1.401       .  A
C1215      S1219   1.809       .  S
C1216      H1220   1.083       .  S
S1217      H1222   1.407       .  S
S1219      H1223   1.406       .  S
C1225      C1226   1.399       .  A
C1225      C1230   1.398       .  A
C1225      H1235   1.084       .  S
C1226      C1231   1.476       .  S
C1226      C1227   1.411       .  A
C1227      C1228   1.397       .  A
C1227      S1232   1.805       .  S
C1228      C1229   1.406       .  A
C1228      H1233   1.083       .  S
C1229      C1230   1.418       .  A
C1230      S1234   1.802       .  S
C1231      C1236   1.407       .  A
C1231      C1240   1.399       .  A
S1232      H1248   1.406       .  S
S1234      H1245   1.408       .  S
C1236      C1237   1.400       .  A
C1236      S1241   1.808       .  S
C1237      C1238   1.407       .  A
C1237      H1242   1.082       .  S
C1238      C1239   1.418       .  A
C1239      C1240   1.399       .  A
C1239      S1243   1.801       .  S
C1240      H1244   1.084       .  S
S1241      H1246   1.406       .  S
S1243      H1247   1.408       .  S
C1249      C1250   1.401       .  A
C1249      C1254   1.399       .  A
C1249      H1259   1.084       .  S
C1250      C1255   1.482   1_565  S
C1250      C1251   1.410       .  A
C1251      C1252   1.400       .  A
C1251      S1256   1.803   1_565  S
C1252      C1253   1.407       .  A
C1252      H1257   1.084       .  S
C1253      C1254   1.417       .  A
C1254      S1258   1.802       .  S
C1255      C1260   1.408       .  A
C1255      C1264   1.402       .  A
S1256      H1272   1.407       .  S
S1258      H1269   1.408       .  S
C1260      C1261   1.404       .  A
C1260      S1265   1.805   1_545  S
C1261      C1262   1.407       .  A
C1261      H1266   1.082       .  S
C1262      C1263   1.417       .  A
C1263      C1264   1.399       .  A
C1263      S1267   1.802       .  S
C1264      H1268   1.084       .  S
S1265      H1270   1.407       .  S
S1267      H1271   1.407       .  S
C1273      C1274   1.401       .  A
C1273      C1278   1.400       .  A
C1273      H1283   1.084       .  S
C1274      C1279   1.479       .  S
C1274      C1275   1.412       .  A
C1275      C1276   1.401       .  A
C1275      S1280   1.807       .  S
C1276      C1277   1.406       .  A
C1276      H1281   1.084       .  S
C1277      C1278   1.416       .  A
C1278      S1282   1.802       .  S
C1279      C1284   1.407       .  A
C1279      C1288   1.402       .  A
S1280      H1296   1.403       .  S
S1282      H1293   1.408       .  S
C1284      C1285   1.401       .  A
C1284      S1289   1.807       .  S
C1285      C1286   1.405       .  A
C1285      H1290   1.082       .  S
C1286      C1287   1.416       .  A
C1287      C1288   1.402       .  A
C1287      S1291   1.802       .  S
C1288      H1292   1.083       .  S
S1289      H1294   1.407       .  S
S1291      H1295   1.407       .  S
C1297      C1298   1.401       .  A
C1297      C1302   1.395       .  A
C1297      H1307   1.084       .  S
C1298      C1303   1.475       .  S
C1298      C1299   1.411       .  A
C1299      C1300   1.399       .  A
C1299      S1304   1.803       .  S
C1300      C1301   1.404       .  A
C1300      H1305   1.084       .  S
C1301      C1302   1.413       .  A
C1302      S1306   1.805       .  S
C1303      C1308   1.407       .  A
C1303      C1312   1.400       .  A
S1304      H1320   1.407       .  S
S1306      H1317   1.406       .  S
C1308      C1309   1.401       .  A
C1308      S1313   1.806       .  S
C1309      C1310   1.406       .  A
C1309      H1314   1.083       .  S
C1310      C1311   1.416       .  A
C1311      C1312   1.397       .  A
C1311      S1315   1.802       .  S
C1312      H1316   1.084       .  S
S1313      H1318   1.407       .  S
S1315      H1319   1.406       .  S
C1321      C1322   1.400       .  A
C1321      C1326   1.398       .  A
C1321      H1331   1.084       .  S
C1322      C1327   1.479       .  S
C1322      C1323   1.409       .  A
C1323      C1324   1.402       .  A
C1323      S1328   1.803       .  S
C1324      C1325   1.409       .  A
C1324      H1329   1.084       .  S
C1325      C1326   1.418       .  A
C1326      S1330   1.801       .  S
C1327      C1332   1.410       .  A
C1327      C1336   1.402       .  A
S1328      H1344   1.406       .  S
S1330      H1341   1.408       .  S
C1332      C1333   1.403       .  A
C1332      S1337   1.806       .  S
C1333      C1334   1.402       .  A
C1333      H1338   1.083       .  S
C1334      C1335   1.412       .  A
C1335      C1336   1.399       .  A
C1335      S1339   1.803       .  S
C1336      H1340   1.084       .  S
S1337      H1342   1.407       .  S
S1339      H1343   1.406       .  S
C1345      C1346   1.402       .  A
C1345      C1350   1.395       .  A
C1345      H1355   1.084       .  S
C1346      C1351   1.476       .  S
C1346      C1347   1.410       .  A
C1347      C1348   1.401       .  A
C1347      S1352   1.804       .  S
C1348      C1349   1.408       .  A
C1348      H1353   1.084       .  S
C1349      C1350   1.413       .  A
C1350      S1354   1.802       .  S
C1351      C1356   1.409       .  A
C1351      C1360   1.401       .  A
S1352      H1368   1.405       .  S
S1354      H1365   1.407       .  S
C1356      C1357   1.400       .  A
C1356      S1361   1.807       .  S
C1357      C1358   1.403       .  A
C1357      H1362   1.083       .  S
C1358      C1359   1.415       .  A
C1359      C1360   1.398       .  A
C1359      S1363   1.804       .  S
C1360      H1364   1.084       .  S
S1361      H1366   1.407       .  S
S1363      H1367   1.405       .  S
C1369      C1370   1.400       .  A
C1369      C1374   1.407       .  A
C1369      H1379   1.083       .  S
C1370      C1375   1.477       .  S
C1370      C1371   1.409       .  A
C1371      C1372   1.395       .  A
C1371      S1376   1.806       .  S
C1372      C1373   1.406       .  A
C1372      H1377   1.083       .  S
C1373      C1374   1.420       .  A
C1374      S1378   1.807       .  S
C1375      C1380   1.409       .  A
C1375      C1384   1.401       .  A
S1376      H1392   1.405       .  S
S1378      H1389   1.407       .  S
C1380      C1381   1.404       .  A
C1380      S1385   1.804       .  S
C1381      C1382   1.403       .  A
C1381      H1386   1.083       .  S
C1382      C1383   1.411       .  A
C1383      C1384   1.396       .  A
C1383      S1387   1.804       .  S
C1384      H1388   1.084       .  S
S1385      H1390   1.407       .  S
S1387      H1391   1.406       .  S
C1393      C1394   1.400       .  A
C1393      C1398   1.394       .  A
C1393      H1403   1.084       .  S
C1394      C1399   1.474       .  S
C1394      C1395   1.412       .  A
C1395      C1396   1.400       .  A
C1395      S1400   1.804       .  S
C1396      C1397   1.403       .  A
C1396      H1401   1.084       .  S
C1397      C1398   1.411       .  A
C1398      S1402   1.803       .  S
C1399      C1404   1.410       .  A
C1399      C1408   1.399       .  A
S1400      H1416   1.405       .  S
S1402      H1413   1.403       .  S
C1404      C1405   1.402       .  A
C1404      S1409   1.808       .  S
C1405      C1406   1.404       .  A
C1405      H1410   1.083       .  S
C1406      C1407   1.415       .  A
C1407      C1408   1.397       .  A
C1407      S1411   1.803       .  S
C1408      H1412   1.084       .  S
S1409      H1414   1.407       .  S
S1411      H1415   1.408       .  S
C1417      C1418   1.401       .  A
C1417      C1422   1.399       .  A
C1417      H1427   1.084       .  S
C1418      C1423   1.476       .  S
C1418      C1419   1.413       .  A
C1419      C1420   1.399       .  A
C1419      S1424   1.804       .  S
C1420      C1421   1.401       .  A
C1420      H1425   1.084       .  S
C1421      C1422   1.412       .  A
C1422      S1426   1.803       .  S
C1423      C1428   1.409       .  A
C1423      C1432   1.399       .  A
S1424      H1440   1.404       .  S
S1426      H1437   1.406       .  S
C1428      C1429   1.402       .  A
C1428      S1433   1.808       .  S
C1429      C1430   1.405       .  A
C1429      H1434   1.083       .  S
C1430      C1431   1.417       .  A
C1431      C1432   1.400       .  A
C1431      S1435   1.802       .  S
C1432      H1436   1.084       .  S
S1433      H1438   1.407       .  S
S1435      H1439   1.408       .  S
C1441      C1442   1.400       .  A
C1441      C1446   1.400       .  A
C1441      H1451   1.084       .  S
C1442      C1447   1.477       .  S
C1442      C1443   1.412       .  A
C1443      C1444   1.397       .  A
C1443      S1448   1.805       .  S
C1444      C1445   1.404       .  A
C1444      H1449   1.084       .  S
C1445      C1446   1.416       .  A
C1446      S1450   1.802       .  S
C1447      C1452   1.408       .  A
C1447      C1456   1.401       .  A
S1448      H1464   1.405       .  S
S1450      H1461   1.407       .  S
C1452      C1453   1.400       .  A
C1452      S1457   1.808       .  S
C1453      C1454   1.405       .  A
C1453      H1458   1.082       .  S
C1454      C1455   1.417       .  A
C1455      C1456   1.401       .  A
C1455      S1459   1.801   1_556  S
C1456      H1460   1.084       .  S
S1457      H1462   1.406       .  S
S1459      H1463   1.408       .  S
C1465      C1466   1.401       .  A
C1465      C1470   1.397       .  A
C1465      H1475   1.085       .  S
C1466      C1471   1.478       .  S
C1466      C1467   1.411       .  A
C1467      C1468   1.400       .  A
C1467      S1472   1.804       .  S
C1468      C1469   1.406       .  A
C1468      H1473   1.084       .  S
C1469      C1470   1.416       .  A
C1470      S1474   1.803       .  S
C1471      C1476   1.409       .  A
C1471      C1480   1.401       .  A
S1472      H1488   1.405       .  S
S1474      H1485   1.408       .  S
C1476      C1477   1.402       .  A
C1476      S1481   1.807       .  S
C1477      C1478   1.406       .  A
C1477      H1482   1.082       .  S
C1478      C1479   1.415       .  A
C1479      C1480   1.398       .  A
C1479      S1483   1.802       .  S
C1480      H1484   1.084       .  S
S1481      H1486   1.407       .  S
S1483      H1487   1.408       .  S
C1489      C1490   1.402       .  A
C1489      C1494   1.398       .  A
C1489      H1499   1.084       .  S
C1490      C1495   1.477       .  S
C1490      C1491   1.412       .  A
C1491      C1492   1.400       .  A
C1491      S1496   1.804       .  S
C1492      C1493   1.402       .  A
C1492      H1497   1.084       .  S
C1493      C1494   1.412       .  A
C1494      S1498   1.804       .  S
C1495      C1500   1.407       .  A
C1495      C1504   1.401       .  A
S1496      H1512   1.404       .  S
S1498      H1509   1.405       .  S
C1500      C1501   1.400       .  A
C1500      S1505   1.808       .  S
C1501      C1502   1.405       .  A
C1501      H1506   1.083       .  S
C1502      C1503   1.417       .  A
C1503      C1504   1.401       .  A
C1503      S1507   1.802       .  S
C1504      H1508   1.084       .  S
S1505      H1510   1.407       .  S
S1507      H1511   1.408       .  S
C1513      C1514   1.402       .  A
C1513      C1518   1.402       .  A
C1513      H1523   1.084       .  S
C1514      C1519   1.479       .  S
C1514      C1515   1.412       .  A
C1515      C1516   1.396       .  A
C1515      S1520   1.806       .  S
C1516      C1517   1.404       .  A
C1516      H1521   1.084       .  S
C1517      C1518   1.418       .  A
C1518      S1522   1.801       .  S
C1519      C1524   1.410       .  A
C1519      C1528   1.402       .  A
S1520      H1536   1.406       .  S
S1522      H1533   1.408       .  S
C1524      C1525   1.403       .  A
C1524      S1529   1.806       .  S
C1525      C1526   1.402       .  A
C1525      H1530   1.083       .  S
C1526      C1527   1.411       .  A
C1527      C1528   1.397       .  A
C1527      S1531   1.803       .  S
C1528      H1532   1.084       .  S
S1529      H1534   1.407       .  S
S1531      H1535   1.405       .  S
