geometry optimzed in LAMMPS
_audit_creation_date              2020-11-30 
_audit_creation_method            'lammps2cif' 
_symmetry_space_group_name_H-M    'P1' 
_symmetry_Int_Tables_number       1 
_symmetry_cell_setting            triclinic 
loop_ 
_symmetry_equiv_pos_as_xyz 
  x,y,z 
_cell_length_a                    44.77957715 
_cell_length_b                    44.73231638314193 
_cell_length_c                    44.682287920285184 
_cell_angle_alpha                 89.95760735043736 
_cell_angle_beta                  90.02498779844395 
_cell_angle_gamma                 89.95799162008996 
loop_ 
_atom_site_label 
_atom_site_type_symbol 
_atom_site_fract_x 
_atom_site_fract_y 
_atom_site_fract_z 
_atom_site_charge 
N1          N  0.99769455  0.25837751  0.25897912    -0.03100
C2          C  0.00139638  0.22855277  0.26261584    -0.00500
C3          C  0.99668386  0.21357428  0.23601091    -0.23400
C4          C  0.99001498  0.23494375  0.21508109    -0.23600
C5          C  0.99036627  0.26214264  0.22979554    -0.00600
H6          H  0.99770227  0.18967923  0.23235294     0.13200
H7          H  0.98557887  0.23113322  0.19157786     0.13200
O8          O  0.00109186  0.44337535  0.41140159    -0.86100
O9          O  0.00045917  0.44855575  0.58074186    -0.86200
O10         O  0.04815446  0.40981231  0.49380484    -0.87900
O11         O  0.95196702  0.41129113  0.49693323    -0.86700
O12         O  0.91562109  0.44732759  0.49674807    -0.86300
O13         O  0.08554854  0.44476622  0.49169259    -0.87600
O14         O  0.00071026  0.41132393  0.54563550    -0.86100
O15         O  0.00096786  0.40802932  0.44839896    -0.85700
Zr16       Zr  0.00038705  0.43492534  0.49605317     2.84300
O17         O  0.97008800  0.46581875  0.52534398    -1.07700
O18         O  0.03086391  0.46377058  0.46503952    -1.08400
C19         C  0.00170158  0.41593874  0.42055447     1.07000
C20         C  0.00060651  0.42068021  0.57306141     1.07000
C21         C  0.07575330  0.41752084  0.49149366     1.10000
C22         C  0.92446383  0.41980868  0.49701416     1.07700
H23         H  0.04373150  0.45263572  0.53769619     0.33300
O24         O  0.03150201  0.46516233  0.52498095    -1.28600
H25         H  0.95752424  0.45151624  0.45286778     0.33000
O26         O  0.96998881  0.46419808  0.46501214    -1.30300
O27         O  0.00214334  0.54577251  0.57727439    -0.86100
O28         O  0.00227860  0.54095790  0.40775765    -0.87600
O29         O  0.08583570  0.49420086  0.54317251    -0.86200
O30         O  0.91641387  0.49852706  0.54345701    -0.86200
O31         O  0.91541053  0.49496792  0.44599503    -0.85900
O32         O  0.08545470  0.49337182  0.44398114    -0.85700
O33         O  0.05027697  0.57905081  0.49362882    -0.86100
O34         O  0.95429472  0.58015695  0.48880949    -0.85600
O35         O  0.08687204  0.54336177  0.49490751    -0.86600
O36         O  0.91687879  0.54525664  0.48991821    -0.85800
O37         O  0.04876074  0.49560837  0.57839894    -0.86200
O38         O  0.04825278  0.49093523  0.40901941    -0.85900
O39         O  0.95221857  0.49426822  0.41032209    -0.85500
O40         O  0.95331469  0.49791499  0.57902350    -0.86000
O41         O  0.00173249  0.58130250  0.54055585    -0.86200
O42         O  0.00391117  0.57814743  0.44271212    -0.87600
Zr43       Zr  0.00107454  0.49640936  0.55390199     2.83100
Zr44       Zr  0.00072494  0.49316823  0.43430727     2.83500
Zr45       Zr  0.06212284  0.49429545  0.49377632     2.84100
Zr46       Zr  0.94035401  0.49597950  0.49443307     2.83400
Zr47       Zr  0.00202234  0.55500201  0.49240288     2.84200
O48         O  0.97105467  0.52471151  0.46331714    -1.08200
O49         O  0.03198065  0.52536704  0.52328450    -1.07700
C50         C  0.00191645  0.57331197  0.56838360     1.07000
C51         C  0.00362910  0.56880327  0.41527929     1.09600
C52         C  0.07637823  0.49467122  0.57052342     1.07200
C53         C  0.92571971  0.49855680  0.57084088     1.07500
C54         C  0.92466364  0.49436620  0.41861981     1.07100
C55         C  0.07600121  0.49172569  0.41663038     1.06700
C56         C  0.07786836  0.57089461  0.49484928     1.07100
C57         C  0.92662053  0.57241601  0.48771541     1.06600
H58         H  0.04446353  0.53592374  0.45006105     0.33300
O59         O  0.03195493  0.52394371  0.46290578    -1.29300
H60         H  0.95889132  0.53982019  0.53564039     0.33300
O61         O  0.97104637  0.52667842  0.52357804    -1.30600
N62         N  0.99105238  0.72998225  0.73102533    -0.03100
C63         C  0.98567406  0.72646022  0.76071525    -0.00500
C64         C  0.98785738  0.75352430  0.77547397    -0.23400
C65         C  0.99485704  0.77450286  0.75429892    -0.23600
C66         C  0.99691793  0.75951076  0.72739752    -0.00600
H67         H  0.98526441  0.75742632  0.79923338     0.13200
H68         H  0.99791137  0.79821258  0.75800245     0.13200
N69         N  0.98458321  0.26088142  0.73268978    -0.03100
C70         C  0.98768100  0.23099839  0.72893482    -0.00500
C71         C  0.98370477  0.21601647  0.75564187    -0.23400
C72         C  0.97817215  0.23740828  0.77687385    -0.23600
C73         C  0.97877645  0.26466034  0.76227115    -0.00600
H74         H  0.98472016  0.19210272  0.75920537     0.13200
H75         H  0.97467110  0.23361037  0.80053819     0.13200
N76         N  0.98468967  0.73280777  0.26178204    -0.03100
C77         C  0.97775789  0.73110597  0.23228740    -0.00500
C78         C  0.97012433  0.75881414  0.22111627    -0.23400
C79         C  0.97305724  0.77850932  0.24437868    -0.23600
C80         C  0.98224497  0.76211477  0.26901786    -0.00600
H81         H  0.96442812  0.76427485  0.19821491     0.13200
H82         H  0.97047955  0.80253985  0.24309535     0.13200
O83         O  0.00217492  0.04865913  0.41244528    -0.86100
O84         O  0.00277415  0.04356848  0.58239226    -0.86200
O85         O  0.95313642  0.07973169  0.49783404    -0.87900
O86         O  0.05066702  0.08126531  0.49875767    -0.86700
O87         O  0.08719040  0.04563659  0.49583005    -0.86300
O88         O  0.91693077  0.04364060  0.49688900    -0.87600
O89         O  0.00112147  0.07973745  0.54617092    -0.86100
O90         O  0.00074750  0.08224429  0.45106211    -0.85700
Zr91       Zr  0.00216414  0.05580245  0.49778921     2.84300
O92         O  0.03334528  0.02580276  0.52682430    -1.07700
O93         O  0.97175420  0.02687968  0.46672999    -1.08400
C94         C  0.00189754  0.07557085  0.42315714     1.07000
C95         C  0.00145511  0.07116719  0.57370914     1.07000
C96         C  0.92557997  0.07125817  0.49692565     1.10000
C97         C  0.07838587  0.07315429  0.49774871     1.07700
H98         H  0.96007847  0.03698360  0.54013437     0.33300
O99         O  0.97266706  0.02478273  0.52747215    -1.28600
H100        H  0.04465648  0.04067628  0.45351753     0.33000
O101        O  0.03226241  0.02767134  0.46557897    -1.30300
O102        O  0.00481759  0.94508343  0.58008627    -0.86100
O103        O  0.00315403  0.95037113  0.40894506    -0.87600
O104        O  0.91915116  0.99404911  0.54494036    -0.86200
O105        O  0.08865602  0.99742696  0.54168465    -0.86200
O106        O  0.08632077  0.99529155  0.44651831    -0.85900
O107        O  0.91673036  0.99753368  0.44875779    -0.85700
O108        O  0.95579214  0.91043505  0.49351655    -0.86100
O109        O  0.05174682  0.91174051  0.49433886    -0.85600
O110        O  0.91879422  0.94559325  0.49571543    -0.86600
O111        O  0.08778946  0.94780208  0.49409884    -0.85800
O112        O  0.95512845  0.99449506  0.58148744    -0.86200
O113        O  0.95176663  0.00014577  0.41140756    -0.85900
O114        O  0.05054063  0.99699312  0.40987541    -0.85500
O115        O  0.05419614  0.99791844  0.57960628    -0.86000
O116        O  0.00296203  0.91108946  0.54189292    -0.86200
O117        O  0.00708100  0.91383479  0.44503250    -0.87600
Zr118      Zr  0.00401507  0.99484251  0.55703022     2.83100
Zr119      Zr  0.00162240  0.99846430  0.43461316     2.83500
Zr120      Zr  0.94262391  0.99518183  0.49635942     2.84100
Zr121      Zr  0.06260680  0.99665457  0.49481074     2.83400
Zr122      Zr  0.00343450  0.93666274  0.49414299     2.84200
O123        O  0.03232303  0.96772393  0.46394858    -1.08200
O124        O  0.97361047  0.96521655  0.52601444    -1.07700
C125        C  0.00411278  0.91799949  0.56983168     1.07000
C126        C  0.00610622  0.92298500  0.41767642     1.09600
C127        C  0.92765801  0.99427179  0.57250538     1.07200
C128        C  0.08130995  0.99897129  0.56940338     1.07500
C129        C  0.07796533  0.99540404  0.41894353     1.07100
C130        C  0.92445801  0.99962333  0.42102556     1.06700
C131        C  0.92804695  0.91813197  0.49469707     1.07100
C132        C  0.07928837  0.92010926  0.49394562     1.06600
H133        H  0.95996067  0.95409272  0.45171200     0.33300
O134        O  0.97234362  0.96649924  0.46432707    -1.29300
H135        H  0.04670224  0.95293187  0.53726454     0.33300
O136        O  0.03382897  0.96558925  0.52534319    -1.30600
N137        N  0.23892317  0.23220424  0.49198252    -0.03100
C138        C  0.23507965  0.26132315  0.48418758    -0.00500
C139        C  0.26228461  0.27573558  0.48216699    -0.23400
C140        C  0.28374060  0.25481467  0.48835345    -0.23600
C141        C  0.26897126  0.22837082  0.49447824    -0.00600
H142        H  0.26605783  0.29908698  0.47706503     0.13200
H143        H  0.30763597  0.25843775  0.48832563     0.13200
N144        N  0.76764864  0.23023057  0.47213558    -0.03100
C145        C  0.77197210  0.26022627  0.47343865    -0.00500
C146        C  0.74558209  0.27547803  0.46875152    -0.23400
C147        C  0.72399621  0.25429703  0.46452400    -0.23600
C148        C  0.73800564  0.22682667  0.46661385    -0.00600
H149        H  0.74232925  0.29945403  0.46915208     0.13200
H150        H  0.70039843  0.25840817  0.46124252     0.13200
N151        N  0.76732047  0.75951411  0.49732005    -0.03100
C152        C  0.73810626  0.76399531  0.50419025    -0.00500
C153        C  0.72213370  0.73773748  0.50120974    -0.23400
C154        C  0.74205578  0.71626153  0.49240090    -0.23600
C155        C  0.76946687  0.73020335  0.48978795    -0.00600
H156        H  0.69841974  0.73466812  0.50472735     0.13200
H157        H  0.73717714  0.69287615  0.48859716     0.13200
N158        N  0.23882996  0.76004043  0.49409094    -0.03100
C159        C  0.23400897  0.73024764  0.49763917    -0.00500
C160        C  0.26075371  0.71496471  0.49969209    -0.23400
C161        C  0.28294938  0.73586632  0.49753732    -0.23600
C162        C  0.26900910  0.76324333  0.49457413    -0.00600
H163        H  0.26372118  0.69112931  0.50265436     0.13200
H164        H  0.30673699  0.73167645  0.49855813     0.13200
N165        N  0.73828023  0.01498474  0.25746365    -0.03100
C166        C  0.76773052  0.01895611  0.26327352    -0.00500
C167        C  0.78303804  0.02621425  0.23747251    -0.23400
C168        C  0.76233077  0.02678742  0.21484378    -0.23600
C169        C  0.73505990  0.01989845  0.22762139    -0.00600
H170        H  0.80687606  0.02946056  0.23519283     0.13200
H171        H  0.76681692  0.03065993  0.19135833     0.13200
O172        O  0.45329899  0.07991529  0.49509100    -0.86100
O173        O  0.45473091  0.91022414  0.49379083    -0.86200
O174        O  0.41864688  0.99610664  0.44509396    -0.87900
O175        O  0.41996542  0.99417570  0.54207296    -0.86700
O176        O  0.45564113  0.99560233  0.57853954    -0.86300
O177        O  0.45402234  0.99422206  0.40826648    -0.87600
O178        O  0.41947351  0.94740494  0.49410638    -0.86100
O179        O  0.41818282  0.04250408  0.49544155    -0.85700
Zr180      Zr  0.44419968  0.99521952  0.49327767     2.84300
O181        O  0.47423233  0.96518808  0.52356605    -1.07700
O182        O  0.47315516  0.02544058  0.46214186    -1.08400
C183        C  0.42601128  0.07017203  0.49673594     1.07000
C184        C  0.42740648  0.91972776  0.49406777     1.07000
C185        C  0.42657858  0.99556358  0.41734018     1.10000
C186        C  0.42809245  0.99449595  0.56976174     1.07700
H187        H  0.46086365  0.95148544  0.45082367     0.33300
O188        O  0.47343959  0.96394975  0.46321690    -1.28600
H189        H  0.46157977  0.03864531  0.53539678     0.33000
O190        O  0.47395658  0.02642770  0.52266358    -1.30300
O191        O  0.55329909  0.90985451  0.49835359    -0.86100
O192        O  0.55306357  0.08031376  0.48773046    -0.87600
O193        O  0.50469300  0.94630245  0.40863584    -0.86200
O194        O  0.50391766  0.94821103  0.57804204    -0.86200
O195        O  0.50498649  0.04543340  0.57602110    -0.85900
O196        O  0.50097410  0.04148371  0.40688348    -0.85700
O197        O  0.58779744  0.99292297  0.44349918    -0.86100
O198        O  0.58857178  0.99818014  0.54093777    -0.85600
O199        O  0.55156378  0.99390051  0.40744453    -0.86600
O200        O  0.55286051  0.99788721  0.57749139    -0.85800
O201        O  0.50667677  0.90963860  0.44451658    -0.86200
O202        O  0.49875420  0.07940104  0.44132724    -0.85900
O203        O  0.50581905  0.08184496  0.53980537    -0.85500
O204        O  0.50204478  0.91083712  0.54308064    -0.86000
O205        O  0.58828005  0.94724945  0.49670428    -0.86200
O206        O  0.58809762  0.04291247  0.48985600    -0.87600
Zr207      Zr  0.50409327  0.93407445  0.49368788     2.83100
Zr208      Zr  0.50335750  0.05670356  0.49133198     2.83500
Zr209      Zr  0.50311662  0.99427241  0.43281629     2.84100
Zr210      Zr  0.50409823  0.99639862  0.55292281     2.83400
Zr211      Zr  0.56333472  0.99520456  0.49242623     2.84200
O212        O  0.53363798  0.02646452  0.52191667    -1.08200
O213        O  0.53379976  0.96409975  0.46271240    -1.07700
C214        C  0.58052486  0.91965726  0.49958333     1.07000
C215        C  0.58035482  0.07047778  0.48724980     1.09600
C216        C  0.50666056  0.91888630  0.41701355     1.07200
C217        C  0.50269023  0.92040407  0.57035169     1.07500
C218        C  0.50573683  0.07296401  0.56735170     1.07100
C219        C  0.49820139  0.06914924  0.41418607     1.06700
C220        C  0.57920946  0.99305403  0.41587695     1.07100
C221        C  0.58036458  0.99861520  0.56866051     1.06600
H222        H  0.54555452  0.03724130  0.44859456     0.33300
O223        O  0.53335260  0.02537841  0.46174114    -1.29300
H224        H  0.54632953  0.95361361  0.53650198     0.33300
O225        O  0.53391939  0.96532646  0.52348333    -1.30600
N226        N  0.26860975  0.00781116  0.72885443    -0.03100
C227        C  0.27312738  0.00691070  0.75883729    -0.00500
C228        C  0.24681250  0.01208052  0.77408944    -0.23400
C229        C  0.22529941  0.01678057  0.75284087    -0.23600
C230        C  0.23931397  0.01446693  0.72537512    -0.00600
H231        H  0.24360062  0.01198010  0.79809719     0.13200
H232        H  0.20180672  0.02076815  0.75690930     0.13200
N233        N  0.73749320  0.98849530  0.73045282    -0.03100
C234        C  0.76721278  0.98422160  0.72668831    -0.00500
C235        C  0.78119371  0.97944029  0.75379846    -0.23400
C236        C  0.75928724  0.98054585  0.77521342    -0.23600
C237        C  0.73276507  0.98589787  0.76033447    -0.00600
H238        H  0.80486825  0.97635478  0.75759591     0.13200
H239        H  0.76235173  0.97808783  0.79911515     0.13200
N240        N  0.26577743  0.98156253  0.25966363    -0.03100
C241        C  0.26999898  0.97905519  0.22973440    -0.00500
C242        C  0.24392584  0.97013448  0.21573587    -0.23400
C243        C  0.22272021  0.96748113  0.23771853    -0.23600
C244        C  0.23674961  0.97450390  0.26428783    -0.00600
H245        H  0.24047920  0.96706392  0.19195908     0.13200
H246        H  0.19932743  0.96229782  0.23456651     0.13200
O247        O  0.58485998  0.99673099  0.04412731    -0.86100
O248        O  0.41555823  0.99796951  0.04567364    -0.86200
O249        O  0.50006285  0.04620683  0.07876252    -0.87900
O250        O  0.50053927  0.94718444  0.08078882    -0.86700
O251        O  0.50030083  0.91105127  0.04458223    -0.86300
O252        O  0.49987351  0.08122869  0.04151741    -0.87600
O253        O  0.45298030  0.99724733  0.08089804    -0.86100
O254        O  0.54847799  0.99783776  0.08033142    -0.85700
Zr255      Zr  0.50046953  0.99624942  0.05559438     2.84300
O256        O  0.46948596  0.96590262  0.02644122    -1.07700
O257        O  0.53037154  0.02550818  0.02445197    -1.08400
C258        C  0.57592227  0.99808614  0.07165573     1.07000
C259        C  0.42537472  0.99845952  0.07295281     1.07000
C260        C  0.49949843  0.07364619  0.06933394     1.10000
C261        C  0.50074133  0.91948286  0.07219301     1.07700
H262        H  0.45770367  0.03893989  0.03742171     0.33300
O263        O  0.46988663  0.02596309  0.02512843    -1.28600
H264        H  0.54301965  0.95286934  0.03847872     0.33000
O265        O  0.53058923  0.96539497  0.02594596    -1.30300
O266        O  0.41426636  0.99397489  0.94698133    -0.86100
O267        O  0.58428505  0.99463622  0.94537017    -0.87600
O268        O  0.45197657  0.08008475  0.99330396    -0.86200
O269        O  0.45186633  0.91113105  0.99858410    -0.86200
O270        O  0.54679161  0.91026599  0.99453381    -0.85900
O271        O  0.54833063  0.07910617  0.99635212    -0.85700
O272        O  0.49995842  0.04324562  0.90902978    -0.86100
O273        O  0.49749879  0.94643228  0.91083611    -0.85600
O274        O  0.50059850  0.07967052  0.94492185    -0.86600
O275        O  0.49797024  0.91098300  0.94759989    -0.85800
O276        O  0.41514696  0.04474871  0.99395389    -0.86200
O277        O  0.58503167  0.04345005  0.99720383    -0.85900
O278        O  0.58412217  0.94523620  0.99420011    -0.85500
O279        O  0.41470189  0.94628416  0.99983304    -0.86000
O280        O  0.45122097  0.99604918  0.91138510    -0.86200
O281        O  0.54723463  0.99317951  0.91003929    -0.87600
Zr282      Zr  0.43880721  0.99553038  0.99600630     2.83100
Zr283      Zr  0.56067682  0.99481289  0.99487756     2.83500
Zr284      Zr  0.50001753  0.05513812  0.99391975     2.84100
Zr285      Zr  0.49950435  0.93594264  0.99606435     2.83400
Zr286      Zr  0.49943092  0.99507124  0.93523372     2.84200
O287        O  0.52988306  0.96485535  0.96510950    -1.08200
O288        O  0.46885904  0.02526584  0.96480633    -1.07700
C289        C  0.42369232  0.99494612  0.91960577     1.07000
C290        C  0.57493477  0.99357885  0.91797199     1.09600
C291        C  0.42427695  0.07214158  0.99332957     1.07200
C292        C  0.42432441  0.91895163  0.00064157     1.07500
C293        C  0.57449169  0.91795655  0.99401190     1.07100
C294        C  0.57588468  0.07082600  0.99784912     1.06700
C295        C  0.50029118  0.07095563  0.91734565     1.07100
C296        C  0.49712580  0.91897638  0.91986238     1.06600
H297        H  0.54305101  0.03752686  0.95161997     0.33300
O298        O  0.53066240  0.02516531  0.96423708    -1.29300
H299        H  0.45629470  0.95255817  0.95359087     0.33300
O300        O  0.46888560  0.96529807  0.96570159    -1.30600
N301        N  0.47488420  0.23083930  0.22921876    -0.03100
C302        C  0.46692635  0.22563667  0.25806524    -0.00500
C303        C  0.46262474  0.25233733  0.27304823    -0.23400
C304        C  0.46828553  0.27473881  0.25290765    -0.23600
C305        C  0.47606117  0.26097899  0.22637461    -0.00600
H306        H  0.45729506  0.25519435  0.29649641     0.13200
H307        H  0.46744017  0.29852244  0.25725306     0.13200
N308        N  0.49256012  0.75794662  0.23070047    -0.03100
C309        C  0.48391487  0.72919689  0.22637105    -0.00500
C310        C  0.48140617  0.71429524  0.25336394    -0.23400
C311        C  0.48833236  0.73454239  0.27523186    -0.23600
C312        C  0.49517142  0.76099318  0.26082101    -0.00600
H313        H  0.47596851  0.69095672  0.25669080     0.13200
H314        H  0.48844056  0.73047751  0.29911549     0.13200
N315        N  0.51025706  0.76165481  0.76001965    -0.03100
C316        C  0.51415658  0.73213566  0.76506282    -0.00500
C317        C  0.51931750  0.71712024  0.73858993    -0.23400
C318        C  0.51869093  0.73828689  0.71631562    -0.23600
C319        C  0.51323720  0.76537943  0.73011247    -0.00600
H320        H  0.52193267  0.69324378  0.73571389     0.13200
H321        H  0.52096927  0.73427651  0.69254502     0.13200
N322        N  0.50972038  0.23070625  0.75729208    -0.03100
C323        C  0.50354976  0.22856202  0.72763051    -0.00500
C324        C  0.50361921  0.25641036  0.71427378    -0.23400
C325        C  0.50945268  0.27662401  0.73644103    -0.23600
C326        C  0.51327891  0.26041478  0.76252424    -0.00600
H327        H  0.50000799  0.26140432  0.69084398     0.13200
H328        H  0.51055033  0.30066481  0.73391760     0.13200
O329        O  0.99595606  0.41134039  0.04636121    -0.86100
O330        O  0.99467932  0.58111234  0.04726619    -0.86200
O331        O  0.04661500  0.49434695  0.08202392    -0.87900
O332        O  0.94879585  0.49478665  0.08205789    -0.86700
O333        O  0.91304423  0.49416002  0.04565918    -0.86300
O334        O  0.08257808  0.49427515  0.04575925    -0.87600
O335        O  0.99502711  0.54398090  0.08265300    -0.86100
O336        O  0.99596125  0.44833619  0.08189584    -0.85700
Zr337      Zr  0.99781969  0.49631713  0.05736787     2.84300
O338        O  0.96775013  0.52658907  0.02740445    -1.07700
O339        O  0.02813534  0.46595528  0.02748383    -1.08400
C340        C  0.99461773  0.42080077  0.07373410     1.07000
C341        C  0.99347458  0.57159486  0.07466507     1.07000
C342        C  0.07416183  0.49329231  0.07345198     1.10000
C343        C  0.92121180  0.49377960  0.07331186     1.07700
H344        H  0.04027991  0.53964540  0.04042874     0.33300
O345        O  0.02781096  0.52739259  0.02773904    -1.28600
H346        H  0.95557685  0.45349717  0.03964924     0.33000
O347        O  0.96816019  0.46589570  0.02719992    -1.30300
O348        O  0.99449241  0.58177178  0.94786611    -0.86100
O349        O  0.99454714  0.41241489  0.94738754    -0.87600
O350        O  0.08207010  0.54473025  0.99694828    -0.86200
O351        O  0.91255114  0.54366649  0.00163091    -0.86200
O352        O  0.91398543  0.44786182  0.99825600    -0.85900
O353        O  0.08249022  0.44898401  0.99682220    -0.85700
O354        O  0.04588859  0.49664083  0.91276261    -0.86100
O355        O  0.94853307  0.49523778  0.91248046    -0.85600
O356        O  0.08251317  0.49720072  0.94833814    -0.86600
O357        O  0.91278892  0.49495554  0.94898034    -0.85800
O358        O  0.04673575  0.58173098  0.99642564    -0.86200
O359        O  0.04759478  0.41159178  0.99652325    -0.85900
O360        O  0.94962340  0.41112445  0.99759141    -0.85500
O361        O  0.94774143  0.58105727  0.00174035    -0.86000
O362        O  0.99600250  0.54440876  0.91269155    -0.86200
O363        O  0.99509166  0.44935434  0.91191279    -0.87600
Zr364      Zr  0.99725520  0.55780163  0.99752071     2.83100
Zr365      Zr  0.99826825  0.43550871  0.99707968     2.83500
Zr366      Zr  0.05743870  0.49679320  0.99716808     2.84100
Zr367      Zr  0.93797534  0.49615077  0.99738839     2.83400
Zr368      Zr  0.99723499  0.49672710  0.93750368     2.84200
O369        O  0.96770918  0.46582909  0.96723992    -1.08200
O370        O  0.02732491  0.52735921  0.96722837    -1.07700
C371        C  0.99402879  0.57197303  0.92053653     1.07000
C372        C  0.99370976  0.42173385  0.91995712     1.09600
C373        C  0.07415979  0.57242918  0.99626343     1.07200
C374        C  0.92059347  0.57124587  0.00366782     1.07500
C375        C  0.92227252  0.42026580  0.99833981     1.07100
C376        C  0.07485872  0.42121069  0.99655237     1.06700
C377        C  0.07360537  0.49706219  0.92075002     1.07100
C378        C  0.92100744  0.49470267  0.92129506     1.06600
H379        H  0.04034506  0.45389065  0.95397665     0.33300
O380        O  0.02794129  0.46614659  0.96676134    -1.29300
H381        H  0.95394998  0.53947536  0.95502301     0.33300
O382        O  0.96693932  0.52736606  0.96724174    -1.30600
N383        N  0.76166377  0.50259790  0.23310291    -0.03100
C384        C  0.76478930  0.50048366  0.26329268    -0.00500
C385        C  0.73821992  0.50702501  0.27755701    -0.23400
C386        C  0.71787035  0.51324765  0.25561399    -0.23600
C387        C  0.73276635  0.51068940  0.22866641    -0.00600
H388        H  0.73418483  0.50737776  0.30143685     0.13200
H389        H  0.69452648  0.51861074  0.25887816     0.13200
N390        N  0.23742385  0.47817424  0.22921265    -0.03100
C391        C  0.26748468  0.47583078  0.22622677    -0.00500
C392        C  0.28122008  0.47583962  0.25396897    -0.23400
C393        C  0.25895562  0.47818811  0.27483519    -0.23600
C394        C  0.23251773  0.47976106  0.25907105    -0.00600
H395        H  0.30496321  0.47507940  0.25846031     0.13200
H396        H  0.26171725  0.47921359  0.29887474     0.13200
N397        N  0.23322537  0.49312697  0.76052974    -0.03100
C398        C  0.26321821  0.49431061  0.76431159    -0.00500
C399        C  0.27782267  0.48815969  0.73774081    -0.23400
C400        C  0.25612569  0.48355716  0.71665096    -0.23600
C401        C  0.22915596  0.48668135  0.73123238    -0.00600
H402        H  0.30169998  0.48784099  0.73400585     0.13200
H403        H  0.25956098  0.47979315  0.69297504     0.13200
N404        N  0.76515134  0.48342896  0.75833093    -0.03100
C405        C  0.77002773  0.48441398  0.72832593    -0.00500
C406        C  0.74390121  0.47935268  0.71274264    -0.23400
C407        C  0.72214755  0.47451418  0.73365990    -0.23600
C408        C  0.73575512  0.47662903  0.76135558    -0.00600
H409        H  0.74105608  0.47917965  0.68868681     0.13200
H410        H  0.69878502  0.47022325  0.72919795     0.13200
N411        N  0.26379789  0.26100539  0.99373700    -0.03100
C412        C  0.23428043  0.26634818  0.99741721    -0.00500
C413        C  0.21863194  0.23987291  0.99984906    -0.23400
C414        C  0.23930168  0.21727743  0.99787746    -0.23600
C415        C  0.26675213  0.23086059  0.99433045    -0.00600
H416        H  0.19471254  0.23733417  0.00216499     0.13200
H417        H  0.23485912  0.19352479  0.99894542     0.13200
O418        O  0.49839013  0.44699591  0.07989113    -0.86100
O419        O  0.50192043  0.44339893  0.90975696    -0.86200
O420        O  0.45143099  0.41038247  0.99278158    -0.87900
O421        O  0.54947841  0.41086187  0.99604936    -0.86700
O422        O  0.58520820  0.44735091  0.99590753    -0.86300
O423        O  0.41550894  0.44663679  0.99152836    -0.87600
O424        O  0.50255619  0.40871213  0.94777978    -0.86100
O425        O  0.49841903  0.41119286  0.04308309    -0.85700
Zr426      Zr  0.50025856  0.43513843  0.99463862     2.84300
O427        O  0.53017420  0.46480165  0.96385665    -1.07700
O428        O  0.46961309  0.46534067  0.02413830    -1.08400
C429        C  0.49830181  0.41953113  0.07065276     1.07000
C430        C  0.50273697  0.41623354  0.91996764     1.07000
C431        C  0.42385672  0.41905662  0.99146074     1.10000
C432        C  0.57702652  0.41969082  0.99651955     1.07700
H433        H  0.45820943  0.45143493  0.95014528     0.33300
O434        O  0.47054131  0.46406290  0.96246516    -1.28600
H435        H  0.54226868  0.45334580  0.03810776     0.33000
O436        O  0.52976121  0.46550814  0.02537776    -1.30300
O437        O  0.50106657  0.54333385  0.90717465    -0.86100
O438        O  0.49625755  0.54605612  0.07790643    -0.87600
O439        O  0.41580224  0.49661220  0.94438159    -0.86200
O440        O  0.58484716  0.49320260  0.94656575    -0.86200
O441        O  0.58364993  0.49749280  0.04253490    -0.85900
O442        O  0.41516814  0.49493508  0.03936327    -0.85700
O443        O  0.45060755  0.57970196  0.99199591    -0.86100
O444        O  0.54705986  0.57991529  0.99527180    -0.85600
O445        O  0.41513742  0.54311310  0.99253898    -0.86600
O446        O  0.58365314  0.54422251  0.99587272    -0.85800
O447        O  0.45111899  0.49590967  0.90712536    -0.86200
O448        O  0.44905243  0.49471721  0.07767333    -0.85900
O449        O  0.54818740  0.49937415  0.07945240    -0.85500
O450        O  0.55041351  0.49139087  0.90861880    -0.86000
O451        O  0.50075197  0.57875370  0.94431670    -0.86200
O452        O  0.49765460  0.58027739  0.03975573    -0.87600
Zr453      Zr  0.50062877  0.49396613  0.93166190     2.83100
Zr454      Zr  0.49896280  0.49603744  0.05501151     2.83500
Zr455      Zr  0.44058332  0.49479617  0.99215249     2.84100
Zr456      Zr  0.55940234  0.49537908  0.99430463     2.83400
Zr457      Zr  0.49922808  0.55457027  0.99239090     2.84200
O458        O  0.52904306  0.52566719  0.02399212    -1.08200
O459        O  0.47006639  0.52457017  0.96132416    -1.07700
C460        C  0.50127129  0.57073282  0.91665880     1.07000
C461        C  0.49591823  0.57317906  0.06758390     1.09600
C462        C  0.42379959  0.49757476  0.91675086     1.07200
C463        C  0.57754654  0.49095345  0.91877452     1.07500
C464        C  0.57560808  0.49977096  0.07008048     1.07100
C465        C  0.42204226  0.49437153  0.06722497     1.06700
C466        C  0.42311249  0.57083825  0.99266239     1.07100
C467        C  0.57459770  0.57165870  0.99675569     1.06600
H468        H  0.45617935  0.53782146  0.03496046     0.33300
O469        O  0.46916927  0.52525665  0.02318029    -1.29300
H470        H  0.54300998  0.53718587  0.95030769     0.33300
O471        O  0.53017681  0.52478917  0.96242053    -1.30600
N472        N  0.73268957  0.73009210  0.01611931    -0.03100
C473        C  0.72811622  0.75978040  0.01189566    -0.00500
C474        C  0.75471468  0.77527438  0.01331670    -0.23400
C475        C  0.77658087  0.75451826  0.01849834    -0.23600
C476        C  0.76258145  0.72702301  0.02027524    -0.00600
H477        H  0.75789297  0.79905154  0.01016788     0.13200
H478        H  0.80031216  0.75886368  0.01990729     0.13200
N479        N  0.26408822  0.73112308  0.00568110    -0.03100
C480        C  0.26700591  0.76106085  0.00993975    -0.00500
C481        C  0.23952013  0.77508169  0.00870795    -0.23400
C482        C  0.21880014  0.75321794  0.00369210    -0.23600
C483        C  0.23433056  0.72662181  0.00187179    -0.00600
H484        H  0.23514227  0.79879801  0.01068720     0.13200
H485        H  0.19492668  0.75631577  0.00148079     0.13200
N486        N  0.73531116  0.25905801  0.00875906    -0.03100
C487        C  0.76525052  0.26333268  0.00705296    -0.00500
C488        C  0.78038605  0.23647098  0.00821954    -0.23400
C489        C  0.75915897  0.21462809  0.01054324    -0.23600
C490        C  0.73181767  0.22893808  0.01041316    -0.00600
H491        H  0.80431423  0.23318969  0.00719822     0.13200
H492        H  0.76313631  0.19078243  0.01161559     0.13200
C493        C  0.66760141  0.30658894  0.02574010    -0.22100
C494        C  0.66691543  0.32545572  0.00068543     0.09900
C495        C  0.68915234  0.32252836  0.97850741     0.10300
C496        C  0.71154111  0.30073291  0.98188231    -0.17000
C497        C  0.71226762  0.28169895  0.00690385    -0.27400
C498        C  0.69022357  0.28508593  0.02939305     0.18600
C499        C  0.64381414  0.34933936  0.99910166     0.12600
C500        C  0.68914960  0.34235100  0.95125900    -0.11700
H501        H  0.72840966  0.29816075  0.96470468     0.12900
C502        C  0.69070149  0.26761121  0.05819515    -0.22600
H503        H  0.65081470  0.30926122  0.04301839     0.08500
C504        C  0.61523448  0.34412185  0.98696646     0.04900
C505        C  0.59420526  0.36749879  0.98622769    -0.19800
C506        C  0.60083824  0.39612741  0.99761043    -0.12100
C507        C  0.62964436  0.40106450  0.01021264     0.13600
C508        C  0.65063601  0.37762214  0.01061566    -0.22500
C509        C  0.60691533  0.31381766  0.97492051    -0.05600
H510        H  0.57240972  0.36331270  0.97656087     0.15100
C511        C  0.63842124  0.43042973  0.02429152    -0.15800
H512        H  0.67258413  0.38126201  0.02019788     0.09400
H513        H  0.67046459  0.25335369  0.05961358     0.07300
H514        H  0.69081918  0.28333954  0.07741250     0.08500
H515        H  0.71073003  0.25329093  0.06048906     0.07500
H516        H  0.69117220  0.36610244  0.95814436     0.02400
H517        H  0.66800782  0.33930684  0.93864327     0.02900
H518        H  0.70803327  0.33706646  0.93603859     0.06400
H519        H  0.58359733  0.31338636  0.96645932     0.05400
H520        H  0.60890417  0.29681728  0.99292789    -0.00400
H521        H  0.62204720  0.30772064  0.95622195     0.01100
H522        H  0.66088712  0.42928490  0.03479886     0.04800
H523        H  0.62218931  0.43651934  0.04206011     0.06700
H524        H  0.63927305  0.44825788  0.00704718     0.07600
C525        C  0.34836155  0.61185764  0.00423069    -0.22100
C526        C  0.35584568  0.64094982  0.99546456     0.09900
C527        C  0.38526378  0.64708144  0.98608356     0.10300
C528        C  0.40642325  0.62381401  0.98512555    -0.17000
C529        C  0.39913572  0.59433808  0.99369910    -0.27400
C530        C  0.36949053  0.58852267  0.00379506     0.18600
C531        C  0.33263668  0.66477558  0.99729560     0.12600
C532        C  0.39432805  0.67826420  0.97719811    -0.11700
H533        H  0.42887042  0.62882762  0.97760390     0.12900
C534        C  0.35982092  0.55829532  0.01529983    -0.22600
H535        H  0.32578677  0.60750783  0.01182763     0.08500
C536        C  0.31229235  0.67003520  0.97372134     0.04900
C537        C  0.29019006  0.69220011  0.97695851    -0.19800
C538        C  0.28756886  0.70895220  0.00341717    -0.12100
C539        C  0.30772971  0.70322418  0.02723407     0.13600
C540        C  0.33017894  0.68151876  0.02367793    -0.22500
C541        C  0.31379234  0.65205358  0.94529417    -0.05600
H542        H  0.27473160  0.69650308  0.95879947     0.15100
C543        C  0.30548614  0.71842419  0.05718477    -0.15800
H544        H  0.34548550  0.67707613  0.04196551     0.09400
H545        H  0.36057391  0.54150497  0.99707251     0.07300
H546        H  0.33654514  0.55866570  0.02387692     0.08500
H547        H  0.37451621  0.55122428  0.03404758     0.07500
H548        H  0.39092802  0.69373179  0.99632079     0.02400
H549        H  0.38058496  0.68589543  0.95797071     0.02900
H550        H  0.41820195  0.67935461  0.97054476     0.06400
H551        H  0.29638263  0.65907459  0.92902344     0.05400
H552        H  0.31035901  0.62801414  0.95043885    -0.00400
H553        H  0.33597491  0.65499965  0.93461555     0.01100
H554        H  0.30305648  0.70127917  0.07500883     0.04800
H555        H  0.28602772  0.73350194  0.05889428     0.06700
H556        H  0.32607597  0.73156409  0.06143379     0.07600
C557        C  0.68362122  0.66371787  0.03317208    -0.22100
C558        C  0.66671535  0.66196557  0.00685346     0.09900
C559        C  0.67145607  0.68293062  0.98375223     0.10300
C560        C  0.69361632  0.70481018  0.98725059    -0.17000
C561        C  0.71059863  0.70673288  0.01360080    -0.27400
C562        C  0.70521642  0.68610440  0.03706372     0.18600
C563        C  0.64348131  0.63856662  0.00436499     0.12600
C564        C  0.65273251  0.68258755  0.95572059    -0.11700
H565        H  0.69771555  0.72066984  0.96939239     0.12900
C566        C  0.72079124  0.68773718  0.06688635    -0.22600
H567        H  0.67946921  0.64786455  0.05106662     0.08500
C568        C  0.64914472  0.61119215  0.98984740     0.04900
C569        C  0.62615129  0.59004103  0.98742056    -0.19800
C570        C  0.59768692  0.59536254  0.99963820    -0.12100
C571        C  0.59245192  0.62258239  0.01521146     0.13600
C572        C  0.61542920  0.64386005  0.01711913    -0.22500
C573        C  0.67963267  0.60406623  0.97748415    -0.05600
H574        H  0.63049497  0.56917322  0.97589948     0.15100
C575        C  0.56330752  0.62911121  0.03091112    -0.15800
H576        H  0.61158791  0.66478924  0.02872774     0.09400
H577        H  0.73439007  0.66725089  0.07030896     0.07300
H578        H  0.70389209  0.68926500  0.08500590     0.08500
H579        H  0.73545876  0.70749575  0.06903002     0.07500
H580        H  0.62887197  0.68583982  0.96163215     0.02400
H581        H  0.65526943  0.66091923  0.94395478     0.02900
H582        H  0.65931661  0.70065664  0.93999434     0.06400
H583        H  0.68029300  0.58158128  0.96697563     0.05400
H584        H  0.69633244  0.60450570  0.99585225    -0.00400
H585        H  0.68604893  0.62073769  0.96027943     0.01100
H586        H  0.56427211  0.65031916  0.04379447     0.04800
H587        H  0.55805376  0.61085574  0.04692557     0.06700
H588        H  0.54498552  0.63144969  0.01435265     0.07600
C589        C  0.32715147  0.30851079  0.96501668    -0.22100
C590        C  0.33324528  0.32607796  0.99027018     0.09900
C591        C  0.31608985  0.32222629  0.01646456     0.10300
C592        C  0.29326159  0.30077843  0.01685724    -0.17000
C593        C  0.28721922  0.28299699  0.99175791    -0.27400
C594        C  0.30422567  0.28705576  0.96538976     0.18600
C595        C  0.35705144  0.34907353  0.98877052     0.12600
C596        C  0.32186987  0.34080745  0.04397052    -0.11700
H597        H  0.28019441  0.29753851  0.03697633     0.12900
C598        C  0.29824104  0.26979902  0.93713220    -0.22600
H599        H  0.34015674  0.31178534  0.94481590     0.08500
C600        C  0.38647471  0.34293169  0.99805855     0.04900
C601        C  0.40756595  0.36614811  0.99872180    -0.19800
C602        C  0.40017769  0.39548437  0.98982264    -0.12100
C603        C  0.37067644  0.40114240  0.97915842     0.13600
C604        C  0.34959207  0.37785928  0.97906439    -0.22500
C605        C  0.39559721  0.31180227  0.00716401    -0.05600
H606        H  0.42995681  0.36125780  0.00651760     0.15100
C607        C  0.36099262  0.43119039  0.96714567    -0.15800
H608        H  0.32693605  0.38214594  0.97162732     0.09400
H609        H  0.31825267  0.25638241  0.93120494     0.07300
H610        H  0.29334351  0.28561788  0.91860330     0.08500
H611        H  0.27893481  0.25451495  0.93917968     0.07500
H612        H  0.31890828  0.36486261  0.03860045     0.02400
H613        H  0.34502091  0.33703850  0.05200739     0.02900
H614        H  0.30632677  0.33502453  0.06245044     0.06400
H615        H  0.41950716  0.31073842  0.01370419     0.05400
H616        H  0.39208981  0.29623933  0.98813674    -0.00400
H617        H  0.38201337  0.30421971  0.02648958     0.01100
H618        H  0.33792746  0.43053746  0.95799961     0.04800
H619        H  0.37605106  0.43823122  0.94869949     0.06700
H620        H  0.36112820  0.44811267  0.98526937     0.07600
C621        C  0.67549541  0.45468396  0.81568545    -0.22100
C622        C  0.67456637  0.48007164  0.83390371     0.09900
C623        C  0.69741183  0.50169134  0.83181459     0.10300
C624        C  0.71918160  0.49885720  0.80936903    -0.17000
C625        C  0.71875860  0.47450797  0.78960461    -0.27400
C626        C  0.69777427  0.45127361  0.79402229     0.18600
C627        C  0.64956043  0.48323095  0.85523227     0.12600
C628        C  0.69831785  0.52798383  0.85280192    -0.11700
H629        H  0.73543328  0.51651495  0.80616900     0.12900
C630        C  0.69832629  0.42263405  0.77625292    -0.22600
H631        H  0.65858629  0.43752739  0.81825151     0.08500
C632        C  0.62292706  0.49817782  0.84738045     0.04900
C633        C  0.59968009  0.50017868  0.86839403    -0.19800
C634        C  0.60250928  0.48756808  0.89709236    -0.12100
C635        C  0.62917986  0.47182970  0.90447354     0.13600
C636        C  0.65227693  0.46999810  0.88339261    -0.22500
C637        C  0.61905213  0.51184005  0.81679469    -0.05600
H638        H  0.57934967  0.51192132  0.86246706     0.15100
C639        C  0.63339514  0.45591978  0.93399910    -0.15800
H640        H  0.67267556  0.45809375  0.88883354     0.09400
H641        H  0.67785147  0.42102136  0.76233028     0.07300
H642        H  0.69906606  0.40329734  0.79183681     0.08500
H643        H  0.71818535  0.42084751  0.76154688     0.07500
H644        H  0.70009394  0.51988924  0.87623475     0.02400
H645        H  0.67764652  0.54146986  0.85038674     0.02900
H646        H  0.71775823  0.54269683  0.84821714     0.06400
H647        H  0.59686006  0.52267445  0.81428767     0.05400
H648        H  0.62107220  0.49422333  0.79941890    -0.00400
H649        H  0.63647966  0.52904875  0.81296261     0.01100
H650        H  0.65441133  0.44271489  0.93451469     0.04800
H651        H  0.61462438  0.44018631  0.93788777     0.06700
H652        H  0.63475178  0.47234418  0.95253097     0.07600
C653        C  0.32306817  0.52333083  0.81517663    -0.22100
C654        C  0.32174118  0.50219338  0.83817724     0.09900
C655        C  0.29711993  0.48259422  0.84008910     0.10300
C656        C  0.27611083  0.48223040  0.81675281    -0.17000
C657        C  0.27926728  0.50139252  0.79212925    -0.27400
C658        C  0.30189083  0.52345773  0.79225850     0.18600
C659        C  0.34764061  0.50002440  0.85849603     0.12600
C660        C  0.29354354  0.46166153  0.86621072    -0.11700
H661        H  0.25845849  0.46566450  0.81676986     0.12900
C662        C  0.30478156  0.54699451  0.76823105    -0.22600
H663        H  0.34145727  0.53908633  0.81448035     0.08500
C664        C  0.37216417  0.48132935  0.85169987     0.04900
C665        C  0.39749056  0.48168868  0.87031271    -0.19800
C666        C  0.39899378  0.50089548  0.89507820    -0.12100
C667        C  0.37491903  0.52090147  0.90062554     0.13600
C668        C  0.34930229  0.51959875  0.88272214    -0.22500
C669        C  0.37159544  0.46123926  0.82465306    -0.05600
H670        H  0.41585886  0.46654148  0.86588008     0.15100
C671        C  0.37584244  0.54491465  0.92429543    -0.15800
H672        H  0.33087983  0.53476352  0.88701692     0.09400
H673        H  0.32629907  0.54407469  0.75624150     0.07300
H674        H  0.30438245  0.56949598  0.77870383     0.08500
H675        H  0.28638599  0.54632514  0.75165360     0.07500
H676        H  0.29196404  0.47480651  0.88722079     0.02400
H677        H  0.31301278  0.44637140  0.86762978     0.02900
H678        H  0.27299133  0.44791110  0.86414641     0.06400
H679        H  0.39257889  0.44817233  0.82247109     0.05400
H680        H  0.36882291  0.47490043  0.80407467    -0.00400
H681        H  0.35270497  0.44528717  0.82640249     0.01100
H682        H  0.37060492  0.56689726  0.91396673     0.04800
H683        H  0.39805629  0.54729174  0.93485101     0.06700
H684        H  0.35890439  0.54008717  0.94176053     0.07600
C685        C  0.32877407  0.46236013  0.17040023    -0.22100
C686        C  0.32611408  0.48787209  0.15258838     0.09900
C687        C  0.30139242  0.50708905  0.15599530     0.10300
C688        C  0.28072996  0.50127316  0.17888304    -0.17000
C689        C  0.28451392  0.47667599  0.19806470    -0.27400
C690        C  0.30821855  0.45635836  0.19300778     0.18600
C691        C  0.34965237  0.49315700  0.13031679     0.12600
C692        C  0.29753232  0.53413481  0.13629307    -0.11700
H693        H  0.26268940  0.51691503  0.18293016     0.12900
C694        C  0.31280442  0.42828165  0.21114167    -0.22600
H695        H  0.34740641  0.44723599  0.16691213     0.08500
C696        C  0.37789439  0.50420626  0.13874618     0.04900
C697        C  0.40106090  0.50451204  0.11768603    -0.19800
C698        C  0.39665958  0.49363908  0.08851087    -0.12100
C699        C  0.36796525  0.48248169  0.08027934     0.13600
C700        C  0.34488902  0.48276063  0.10133069    -0.22500
C701        C  0.38357284  0.51536868  0.17004502    -0.05600
H702        H  0.42272284  0.51317413  0.12413763     0.15100
C703        C  0.36134982  0.46880101  0.05007308    -0.15800
H704        H  0.32316194  0.47374188  0.09555620     0.09400
H705        H  0.33420140  0.42983785  0.22362062     0.07300
H706        H  0.31382521  0.40871972  0.19588765     0.08500
H707        H  0.29453745  0.42400771  0.22727905     0.07500
H708        H  0.29550579  0.52705367  0.11257253     0.02400
H709        H  0.31715873  0.54910093  0.13867970     0.02900
H710        H  0.27716943  0.54700870  0.14227306     0.06400
H711        H  0.40684814  0.52346970  0.17284110     0.05400
H712        H  0.37985663  0.49708570  0.18642850    -0.00400
H713        H  0.36815525  0.53414130  0.17511413     0.01100
H714        H  0.33858092  0.45901141  0.04906852     0.04800
H715        H  0.37744216  0.45049698  0.04536128     0.06700
H716        H  0.36243235  0.48609960  0.03229699     0.07600
C717        C  0.67544136  0.53446847  0.17225454    -0.22100
C718        C  0.67201255  0.50792132  0.15607814     0.09900
C719        C  0.69280914  0.48446870  0.15989802     0.10300
C720        C  0.71498600  0.48706273  0.18200222    -0.17000
C721        C  0.71692560  0.51279167  0.19980504    -0.27400
C722        C  0.69795043  0.53736462  0.19377775     0.18600
C723        C  0.64691131  0.50571446  0.13467802     0.12600
C724        C  0.69134082  0.45667850  0.14094621    -0.11700
H725        H  0.72956917  0.46826885  0.18665795     0.12900
C726        C  0.70063838  0.56673793  0.21007645    -0.22600
H727        H  0.66015213  0.55288433  0.16837529     0.08500
C728        C  0.61977592  0.49153277  0.14221738     0.04900
C729        C  0.59673621  0.49011963  0.12087551    -0.19800
C730        C  0.60010126  0.50294931  0.09234226    -0.12100
C731        C  0.62703980  0.51842027  0.08551085     0.13600
C732        C  0.65001814  0.51940977  0.10677960    -0.22500
C733        C  0.61492477  0.47849481  0.17294040    -0.05600
H734        H  0.57613069  0.47869145  0.12641521     0.15100
C735        C  0.63168402  0.53491728  0.05637925    -0.15800
H736        H  0.67066773  0.53098645  0.10166903     0.09400
H737        H  0.68015382  0.57078692  0.22346790     0.07300
H738        H  0.70325170  0.58511589  0.19356568     0.08500
H739        H  0.72029577  0.56751201  0.22516534     0.07500
H740        H  0.69368832  0.46281104  0.11698230     0.02400
H741        H  0.66967058  0.44516505  0.14422452     0.02900
H742        H  0.70946857  0.44070806  0.14668681     0.06400
H743        H  0.59232719  0.46852262  0.17520007     0.05400
H744        H  0.61723095  0.49633735  0.19004447    -0.00400
H745        H  0.63160094  0.46074145  0.17752312     0.01100
H746        H  0.65273328  0.54804743  0.05643886     0.04800
H747        H  0.61301414  0.55082532  0.05261346     0.06700
H748        H  0.63323853  0.51890863  0.03749763     0.07600
C749        C  0.84954748  0.60764751  0.03215262    -0.22100
C750        C  0.84756480  0.63246766  0.01327248     0.09900
C751        C  0.87087351  0.63862716  0.99289480     0.10300
C752        C  0.89478826  0.61847233  0.99042613    -0.17000
C753        C  0.89640831  0.59306458  0.00876103    -0.27400
C754        C  0.87409946  0.58833581  0.03082748     0.18600
C755        C  0.82244917  0.65340296  0.01745015     0.12600
C756        C  0.87094351  0.66685609  0.97446559    -0.11700
H757        H  0.91219442  0.62246739  0.97405233     0.12900
C758        C  0.87610287  0.56433248  0.05445744    -0.22600
H759        H  0.83227597  0.60390994  0.04875617     0.08500
C760        C  0.79753505  0.65380137  0.99810561     0.04900
C761        C  0.77636964  0.67681617  0.00095172    -0.19800
C762        C  0.77949464  0.69879717  0.02314468    -0.12100
C763        C  0.80265915  0.69611654  0.04456590     0.13600
C764        C  0.82412707  0.67372567  0.04112044    -0.22500
C765        C  0.79361973  0.63028898  0.97431663    -0.05600
H766        H  0.75848089  0.67863193  0.98472177     0.15100
C767        C  0.80563844  0.71670364  0.07112006    -0.15800
H768        H  0.84272852  0.67251407  0.05663529     0.09400
H769        H  0.85723430  0.54850556  0.05182114     0.07300
H770        H  0.87459741  0.57473224  0.07697654     0.08500
H771        H  0.89740552  0.55184544  0.05388907     0.07500
H772        H  0.87088356  0.68658730  0.98953201     0.02400
H773        H  0.85091363  0.66774243  0.95990411     0.02900
H774        H  0.89101634  0.66829675  0.95994217     0.06400
H775        H  0.77263835  0.63365027  0.96147170     0.05400
H776        H  0.79271527  0.60785869  0.98493534    -0.00400
H777        H  0.81256845  0.63089341  0.95836312     0.01100
H778        H  0.80634911  0.70322888  0.09198929     0.04800
H779        H  0.78667287  0.73247064  0.07332188     0.06700
H780        H  0.82666436  0.72971346  0.06924631     0.07600
C781        C  0.87674022  0.34963125  0.01223334    -0.22100
C782        C  0.84916910  0.35839597  0.00026764     0.09900
C783        C  0.84548049  0.38720951  0.98837968     0.10300
C784        C  0.86997032  0.40647940  0.98757520    -0.17000
C785        C  0.89797589  0.39788347  0.99911863    -0.27400
C786        C  0.90124769  0.36915013  0.01220031     0.18600
C787        C  0.82448641  0.33677471  0.00006618     0.12600
C788        C  0.81560407  0.39767503  0.97687547    -0.11700
H789        H  0.86708841  0.42850332  0.97785921     0.12900
C790        C  0.92981525  0.35917006  0.02713045    -0.22600
H791        H  0.87897202  0.32742034  0.02171430     0.08500
C792        C  0.82014652  0.31746625  0.97558211     0.04900
C793        C  0.79813492  0.29540701  0.97746966    -0.19800
C794        C  0.78096131  0.29193107  0.00349101    -0.12100
C795        C  0.78446045  0.31219446  0.02749191     0.13600
C796        C  0.80607205  0.33469547  0.02528073    -0.22500
C797        C  0.83961729  0.31929009  0.94812206    -0.05600
H798        H  0.79553293  0.27956189  0.95929667     0.15100
C799        C  0.76731422  0.30970040  0.05636226    -0.15800
H800        H  0.80954776  0.34985085  0.04389311     0.09400
H801        H  0.94800655  0.35734012  0.01038095     0.07300
H802        H  0.92737315  0.33688717  0.03783932     0.08500
H803        H  0.93618383  0.37535138  0.04486875     0.07500
H804        H  0.79888736  0.39669915  0.99519718     0.02400
H805        H  0.80808794  0.38316888  0.95821343     0.02900
H806        H  0.81656093  0.42104982  0.96853455     0.06400
H807        H  0.83325432  0.30232223  0.93114515     0.05400
H808        H  0.86329669  0.31540852  0.95440613    -0.00400
H809        H  0.83753142  0.34170471  0.93768255     0.01100
H810        H  0.78316398  0.30705731  0.07530043     0.04800
H811        H  0.75194423  0.29040331  0.05679778     0.06700
H812        H  0.75398365  0.33034746  0.05983379     0.07600
C813        C  0.12142721  0.64375385  0.00112340    -0.22100
C814        C  0.14926716  0.63282265  0.99187827     0.09900
C815        C  0.15236178  0.60266491  0.98382752     0.10300
C816        C  0.12738552  0.58391597  0.98520135    -0.17000
C817        C  0.09914872  0.59447747  0.99464399    -0.27400
C818        C  0.09626056  0.62505328  0.00269005     0.18600
C819        C  0.17503896  0.65338206  0.99170647     0.12600
C820        C  0.18202203  0.59035756  0.97369162    -0.11700
H821        H  0.13012190  0.56074172  0.97871734     0.12900
C822        C  0.06726626  0.63820906  0.01367529    -0.22600
H823        H  0.11952560  0.66708889  0.00739481     0.08500
C824        C  0.17974697  0.67351506  0.96792808     0.04900
C825        C  0.20201210  0.69531338  0.97065781    -0.19800
C826        C  0.21894696  0.69794577  0.99697327    -0.12100
C827        C  0.21498016  0.67693325  0.02030079     0.13600
C828        C  0.19348497  0.65441991  0.01700292    -0.22500
C829        C  0.16046205  0.67276483  0.94030783    -0.05600
H830        H  0.20480548  0.71176596  0.95304241     0.15100
C831        C  0.23099006  0.67894599  0.04986878    -0.15800
H832        H  0.18966490  0.63880763  0.03518296     0.09400
H833        H  0.05017563  0.63722380  0.99571175     0.07300
H834        H  0.06976658  0.66205195  0.02013624     0.08500
H835        H  0.05941199  0.62577941  0.03369703     0.07500
H836        H  0.19884770  0.59306042  0.99174215     0.02400
H837        H  0.18966579  0.60257251  0.95346003     0.02900
H838        H  0.18059564  0.56621798  0.96807012     0.06400
H839        H  0.16723443  0.69007624  0.92382233     0.05400
H840        H  0.13680317  0.67690136  0.94646717    -0.00400
H841        H  0.16231186  0.65055009  0.92940936     0.01100
H842        H  0.21438937  0.68036123  0.06827210     0.04800
H843        H  0.24548174  0.69880044  0.05159920     0.06700
H844        H  0.24494447  0.65868574  0.05316570     0.07600
C845        C  0.12379631  0.35203432  0.00809433    -0.22100
C846        C  0.15097559  0.36223521  0.99635434     0.09900
C847        C  0.15280180  0.39099671  0.98382140     0.10300
C848        C  0.12740281  0.40923937  0.98375958    -0.17000
C849        C  0.09998104  0.39943200  0.99581966    -0.27400
C850        C  0.09816352  0.37016945  0.00793312     0.18600
C851        C  0.17670036  0.34157014  0.99590458     0.12600
C852        C  0.18160829  0.40250762  0.97074383    -0.11700
H853        H  0.12907174  0.43140269  0.97408224     0.12900
C854        C  0.06976584  0.35797339  0.02129319    -0.22600
H855        H  0.12267724  0.32962578  0.01729165     0.08500
C856        C  0.19341605  0.33524603  0.02193191     0.04900
C857        C  0.21451340  0.31202006  0.02127266    -0.19800
C858        C  0.21933353  0.29552250  0.99503868    -0.12100
C859        C  0.20422422  0.30351581  0.96845724     0.13600
C860        C  0.18295578  0.32639568  0.96926416    -0.22500
C861        C  0.18841671  0.35249254  0.05042809    -0.05600
H862        H  0.22592308  0.30557515  0.04167593     0.15100
C863        C  0.20902501  0.28743709  0.93922535    -0.15800
H864        H  0.17028476  0.33163459  0.94924151     0.09400
H865        H  0.06202274  0.37281964  0.03961131     0.07300
H866        H  0.07302056  0.33526412  0.03083408     0.08500
H867        H  0.05227410  0.35624705  0.00377023     0.07500
H868        H  0.18853328  0.38823098  0.95166323     0.02400
H869        H  0.19935528  0.40216993  0.98810375     0.02900
H870        H  0.17931973  0.42579929  0.96240348     0.06400
H871        H  0.20370244  0.34499348  0.06852820     0.05400
H872        H  0.16510975  0.34939148  0.05826424    -0.00400
H873        H  0.19249159  0.37663618  0.04632969     0.01100
H874        H  0.18787219  0.27663503  0.93210253     0.04800
H875        H  0.22654424  0.27000525  0.94059342     0.06700
H876        H  0.21596812  0.30376201  0.92184380     0.07600
C877        C  0.84658587  0.50212126  0.87913507    -0.22100
C878        C  0.85358004  0.48839370  0.85188918     0.09900
C879        C  0.88260931  0.47717916  0.84723649     0.10300
C880        C  0.90404584  0.47968592  0.87013007    -0.17000
C881        C  0.89718686  0.49314620  0.89781017    -0.27400
C882        C  0.86787079  0.50468843  0.90217879     0.18600
C883        C  0.83039504  0.48688320  0.82812536     0.12600
C884        C  0.89093282  0.46280692  0.81793312    -0.11700
H885        H  0.92624030  0.47077487  0.86641450     0.12900
C886        C  0.85879990  0.52057213  0.93053661    -0.22600
H887        H  0.82425949  0.51095387  0.88230944     0.08500
C888        C  0.81144620  0.46187992  0.82508408     0.04900
C889        C  0.79013513  0.46144720  0.80200227    -0.19800
C890        C  0.78698337  0.48557080  0.78209844    -0.12100
C891        C  0.80522541  0.51112903  0.78598650     0.13600
C892        C  0.82705213  0.51120403  0.80859971    -0.22500
C893        C  0.81356990  0.43578901  0.84630574    -0.05600
H894        H  0.77592739  0.44205530  0.79919943     0.15100
C895        C  0.80140515  0.53915543  0.76774300    -0.15800
H896        H  0.84122878  0.53064661  0.81141126     0.09400
H897        H  0.85886316  0.50472687  0.94965262     0.07300
H898        H  0.83588663  0.52996760  0.92891514     0.08500
H899        H  0.87432315  0.53939604  0.93503642     0.07500
H900        H  0.88740791  0.47888747  0.79932770     0.02400
H901        H  0.87698477  0.44269630  0.81401824     0.02900
H902        H  0.91466761  0.45590150  0.81764688     0.06400
H903        H  0.79690377  0.41821602  0.84091276     0.05400
H904        H  0.80942317  0.44351758  0.86954137    -0.00400
H905        H  0.83612322  0.42559794  0.84507567     0.01100
H906        H  0.79784756  0.55846139  0.78294257     0.04800
H907        H  0.78185571  0.53816526  0.75261447     0.06700
H908        H  0.82185290  0.54319103  0.75427932     0.07600
C909        C  0.11378723  0.50362022  0.84474605    -0.22100
C910        C  0.14303131  0.49585538  0.85257911     0.09900
C911        C  0.14964744  0.48897868  0.88265584     0.10300
C912        C  0.12667703  0.48948385  0.90418150    -0.17000
C913        C  0.09699757  0.49701503  0.89655848    -0.27400
C914        C  0.09070559  0.50443747  0.86612811     0.18600
C915        C  0.16628627  0.49492657  0.82874939     0.12600
C916        C  0.18104738  0.48124445  0.89200735    -0.11700
H917        H  0.13206130  0.48378111  0.92713045     0.12900
C918        C  0.06005714  0.51383001  0.85561454    -0.22600
H919        H  0.10902073  0.50904196  0.82157688     0.08500
C920        C  0.17166803  0.46872210  0.81199678     0.04900
C921        C  0.19357051  0.46896477  0.78946863    -0.19800
C922        C  0.21030135  0.49474324  0.78322236    -0.12100
C923        C  0.20460728  0.52112521  0.79971864     0.13600
C924        C  0.18273723  0.52084538  0.82233992    -0.22500
C925        C  0.15438585  0.44048084  0.81800328    -0.05600
H926        H  0.19809076  0.44878728  0.77687061     0.15100
C927        C  0.22066297  0.55001077  0.79364156    -0.15800
H928        H  0.17833312  0.54106567  0.83495862     0.09400
H929        H  0.04410943  0.49499796  0.85801167     0.07300
H930        H  0.06001348  0.52037075  0.83163013     0.08500
H931        H  0.05226206  0.53346161  0.86866757     0.07500
H932        H  0.19613837  0.50027647  0.88696047     0.02400
H933        H  0.18886987  0.46119859  0.87965678     0.02900
H934        H  0.18252572  0.47640137  0.91634743     0.06400
H935        H  0.16144251  0.42201169  0.80297467     0.05400
H936        H  0.13019623  0.44456334  0.81438924    -0.00400
H937        H  0.15802333  0.43316811  0.84146446     0.01100
H938        H  0.20415234  0.56773905  0.78821729     0.04800
H939        H  0.23632787  0.54839078  0.77460823     0.06700
H940        H  0.23345782  0.55674704  0.81382642     0.07600
C941        C  0.11678173  0.47844981  0.14693146    -0.22100
C942        C  0.14584773  0.48665897  0.13882475     0.09900
C943        C  0.15140156  0.49674916  0.10948628     0.10300
C944        C  0.12768028  0.49865464  0.08891851    -0.17000
C945        C  0.09817861  0.49086554  0.09686099    -0.27400
C946        C  0.09285340  0.48040889  0.12653509     0.18600
C947        C  0.16999909  0.48507421  0.16169483     0.12600
C948        C  0.18237928  0.50583879  0.10002608    -0.11700
H949        H  0.13230996  0.50664134  0.06650065     0.12900
C950        C  0.06236214  0.47071899  0.13713265    -0.22600
H951        H  0.11281326  0.47061856  0.16955112     0.08500
C952        C  0.17438856  0.50832614  0.18256779     0.04900
C953        C  0.19690014  0.50558081  0.20433163    -0.19800
C954        C  0.21512051  0.48007224  0.20587339    -0.12100
C955        C  0.21064106  0.45671545  0.18494074     0.13600
C956        C  0.18834393  0.45967956  0.16294558    -0.22500
C957        C  0.15540623  0.53611031  0.18170098    -0.05600
H958        H  0.20045324  0.52346881  0.22025977     0.15100
C959        C  0.22803501  0.42791751  0.18581617    -0.15800
H960        H  0.18480566  0.44175003  0.14701743     0.09400
H961        H  0.04682481  0.49006059  0.13711273     0.07300
H962        H  0.06297926  0.46185576  0.16035595     0.08500
H963        H  0.05362881  0.45268987  0.12247372     0.07500
H964        H  0.19785618  0.48658037  0.10238570     0.02400
H965        H  0.19035428  0.52449140  0.11432246     0.02900
H966        H  0.18296281  0.51340215  0.07635281     0.06400
H967        H  0.16180835  0.55217495  0.19952194     0.05400
H968        H  0.13157784  0.53011791  0.18496291    -0.00400
H969        H  0.15805105  0.54739289  0.15972151     0.01100
H970        H  0.21232602  0.40880465  0.18758702     0.04800
H971        H  0.24338465  0.42645031  0.20513846     0.06700
H972        H  0.24124283  0.42558080  0.16492030     0.07600
C973        C  0.84548365  0.48672646  0.11367681    -0.22100
C974        C  0.85360365  0.49382949  0.14307861     0.09900
C975        C  0.88383550  0.49934488  0.14978231     0.10300
C976        C  0.90520466  0.49843056  0.12678017    -0.17000
C977        C  0.89724761  0.49252762  0.09682850    -0.27400
C978        C  0.86672459  0.48580930  0.09044503     0.18600
C979        C  0.82989221  0.49629049  0.16631406     0.12600
C980        C  0.89348830  0.50659608  0.18123436    -0.11700
H981        H  0.92831094  0.50272283  0.13238269     0.12900
C982        C  0.85596230  0.47693095  0.05965485    -0.22600
H983        H  0.82219609  0.48215734  0.10887407     0.08500
C984        C  0.81399420  0.52320605  0.17062566     0.04900
C985        C  0.79158847  0.52461639  0.19265240    -0.19800
C986        C  0.78461891  0.49972611  0.21049876    -0.12100
C987        C  0.80023525  0.47259493  0.20575493     0.13600
C988        C  0.82289445  0.47132384  0.18396703    -0.22500
C989        C  0.82086825  0.55045055  0.15203415    -0.05600
H990        H  0.77951349  0.54530514  0.19621995     0.15100
C991        C  0.79277044  0.44432972  0.22238183    -0.15800
H992        H  0.83486266  0.45055460  0.18036859     0.09400
H993        H  0.85868957  0.49569444  0.04367237     0.07300
H994        H  0.83189168  0.47094621  0.05963377     0.08500
H995        H  0.86855604  0.45707504  0.05169157     0.07500
H996        H  0.88776504  0.48774436  0.19634566     0.02400
H997        H  0.88193662  0.52711783  0.18905218     0.02900
H998        H  0.91794084  0.51049409  0.18269363     0.06400
H999        H  0.80653698  0.56972205  0.15830467     0.05400
H1000       H  0.81704586  0.54546605  0.12799723    -0.00400
H1001       H  0.84454544  0.55704824  0.15528607     0.01100
H1002       H  0.78754849  0.42632794  0.20610567     0.04800
H1003       H  0.77305595  0.44684426  0.23705386     0.06700
H1004       H  0.81218289  0.43736032  0.23620000     0.07600
C1005       C  0.53805117  0.31866782  0.81742092    -0.22100
C1006       C  0.51491625  0.31708644  0.83835778     0.09900
C1007       C  0.49473671  0.29287747  0.83757767     0.10300
C1008       C  0.49653424  0.27212416  0.81404419    -0.17000
C1009       C  0.51822714  0.27520849  0.79161780    -0.27400
C1010       C  0.54027826  0.29771683  0.79433489     0.18600
C1011       C  0.51145907  0.34194804  0.85983863     0.12600
C1012       C  0.47090541  0.28955077  0.86109365    -0.11700
H1013       H  0.47968531  0.25486769  0.81198441     0.12900
C1014       C  0.56599759  0.30070891  0.77275357    -0.22600
H1015       H  0.55398585  0.33687972  0.81860695     0.08500
C1016       C  0.52962468  0.34416386  0.88544167     0.04900
C1017       C  0.52615643  0.36876848  0.90451915    -0.19800
C1018       C  0.50490166  0.39120768  0.89857059    -0.12100
C1019       C  0.48599177  0.38838794  0.87334849     0.13600
C1020       C  0.48999909  0.36405397  0.85395284    -0.22500
C1021       C  0.55247817  0.32048523  0.89264895    -0.05600
H1022       H  0.54030991  0.37063245  0.92413069     0.15100
C1023       C  0.46050844  0.40952642  0.86692281    -0.15800
H1024       H  0.47589388  0.36198039  0.83432754     0.09400
H1025       H  0.58736151  0.30026349  0.78536884     0.07300
H1026       H  0.56423505  0.32227556  0.76056242     0.08500
H1027       H  0.56689018  0.28232390  0.75616688     0.07500
H1028       H  0.45573153  0.30917373  0.86058560     0.02400
H1029       H  0.48146559  0.28797408  0.88353210     0.02900
H1030       H  0.45731219  0.26910701  0.85750853     0.06400
H1031       H  0.56451780  0.32544395  0.91379604     0.05400
H1032       H  0.56921043  0.31910401  0.87438467    -0.00400
H1033       H  0.54127987  0.29848031  0.89511612     0.01100
H1034       H  0.46472254  0.42147289  0.84555786     0.04800
H1035       H  0.45681225  0.42623053  0.88479697     0.06700
H1036       H  0.43945135  0.39659316  0.86479458     0.07600
C1037       C  0.47907248  0.68099460  0.82164613    -0.22100
C1038       C  0.50392471  0.67421326  0.83941837     0.09900
C1039       C  0.53057305  0.69073837  0.83600562     0.10300
C1040       C  0.53263001  0.71178494  0.81283518    -0.17000
C1041       C  0.50852885  0.71666941  0.79347262    -0.27400
C1042       C  0.48101849  0.70213148  0.79866999     0.18600
C1043       C  0.50250301  0.64766069  0.85902207     0.12600
C1044       C  0.55693753  0.68571215  0.85636293    -0.11700
H1045       H  0.55360887  0.72313892  0.80873559     0.12900
C1046       C  0.45376159  0.70731460  0.77954709    -0.22600
H1047       H  0.45852988  0.66851444  0.82460461     0.08500
C1048       C  0.48523859  0.64733027  0.88529401     0.04900
C1049       C  0.48446949  0.62127721  0.90262333    -0.19800
C1050       C  0.50138029  0.59578527  0.89497774    -0.12100
C1051       C  0.51924754  0.59649427  0.86879805     0.13600
C1052       C  0.51866598  0.62211454  0.85069286    -0.22500
C1053       C  0.46841830  0.67466556  0.89556769    -0.05600
H1054       H  0.47094574  0.62105171  0.92275225     0.15100
C1055       C  0.54068167  0.57200498  0.85998133    -0.15800
H1056       H  0.53191574  0.62263125  0.83037829     0.09400
H1057       H  0.43533904  0.71601142  0.79371568     0.07300
H1058       H  0.44662984  0.68590275  0.76923987     0.08500
H1059       H  0.45763970  0.72356390  0.76129032     0.07500
H1060       H  0.56536927  0.66251809  0.85399473     0.02400
H1061       H  0.55013244  0.68956117  0.87994277     0.02900
H1062       H  0.57560321  0.70118162  0.85109009     0.06400
H1063       H  0.45692607  0.67079435  0.91725906     0.05400
H1064       H  0.45124099  0.68092194  0.87880254    -0.00400
H1065       H  0.48420544  0.69357061  0.89852451     0.01100
H1066       H  0.53364018  0.56217342  0.83829230     0.04800
H1067       H  0.54267927  0.55393617  0.87669723     0.06700
H1068       H  0.56340099  0.58160098  0.85728849     0.07600
C1069       C  0.47877225  0.64940025  0.10176302    -0.22100
C1070       C  0.49243142  0.64663983  0.12971307     0.09900
C1071       C  0.50599871  0.61936767  0.13797390     0.10300
C1072       C  0.50663848  0.59566915  0.11739814    -0.17000
C1073       C  0.49354074  0.59847603  0.08895724    -0.27400
C1074       C  0.47879925  0.62566994  0.08131381     0.18600
C1075       C  0.48911960  0.67138398  0.15127930     0.12600
C1076       C  0.51903396  0.61502209  0.16878168    -0.11700
H1077       H  0.51753402  0.57490585  0.12353166     0.12900
C1078       C  0.46177778  0.62971178  0.05237894    -0.22600
H1079       H  0.46752262  0.67015126  0.09619650     0.08500
C1080       C  0.51210767  0.69227310  0.15662979     0.04900
C1081       C  0.50868604  0.71310142  0.17984328    -0.19800
C1082       C  0.48276956  0.71343095  0.19746239    -0.12100
C1083       C  0.45880278  0.69413399  0.19029423     0.13600
C1084       C  0.46236561  0.67326361  0.16731193    -0.22500
C1085       C  0.54029697  0.69228580  0.13825954    -0.05600
H1086       H  0.52701779  0.72790190  0.18543188     0.15100
C1087       C  0.42938510  0.69464021  0.20667209    -0.15800
H1088       H  0.44444514  0.65770803  0.16242544     0.09400
H1089       H  0.47733030  0.63005189  0.03307285     0.07300
H1090       H  0.44928436  0.65117436  0.05188893     0.08500
H1091       H  0.44526248  0.61139639  0.04970840     0.07500
H1092       H  0.50141188  0.61843534  0.18591788     0.02400
H1093       H  0.53731606  0.63125320  0.17270351     0.02900
H1094       H  0.52829591  0.59216919  0.17172521     0.06400
H1095       H  0.55589343  0.71018748  0.14549401     0.05400
H1096       H  0.53467297  0.69610556  0.11436397    -0.00400
H1097       H  0.55201257  0.67055201  0.14043732     0.01100
H1098       H  0.41100885  0.69835667  0.19038855     0.04800
H1099       H  0.42804945  0.71272311  0.22355968     0.06700
H1100       H  0.42580413  0.67284821  0.21803702     0.07600
C1101       C  0.51254771  0.34591150  0.11062534    -0.22100
C1102       C  0.49107948  0.34710062  0.13330836     0.09900
C1103       C  0.47327297  0.37296601  0.13669474     0.10300
C1104       C  0.47668363  0.39677129  0.11646336    -0.17000
C1105       C  0.49752539  0.39522975  0.09306579    -0.27400
C1106       C  0.51604014  0.36961764  0.09039002     0.18600
C1107       C  0.48920701  0.32186973  0.15460798     0.12600
C1108       C  0.45105759  0.37563598  0.16189439    -0.11700
H1109       H  0.46261039  0.41639376  0.11853014     0.12900
C1110       C  0.54012920  0.36740882  0.06685306    -0.22600
H1111       H  0.52663176  0.32627172  0.10879790     0.08500
C1112       C  0.46705840  0.29952367  0.15223827     0.04900
C1113       C  0.46457323  0.27794491  0.17497004    -0.19800
C1114       C  0.48424801  0.27798825  0.19936798    -0.12100
C1115       C  0.50814689  0.29862865  0.20008684     0.13600
C1116       C  0.51009950  0.32056884  0.17786070    -0.22500
C1117       C  0.44611689  0.29852145  0.12587414    -0.05600
H1118       H  0.44641173  0.26194703  0.17444953     0.15100
C1119       C  0.53175354  0.29825890  0.22415707    -0.15800
H1120       H  0.52772509  0.33715089  0.17897513     0.09400
H1121       H  0.55396606  0.34699290  0.06977230     0.07300
H1122       H  0.55516860  0.38708535  0.06832844     0.08500
H1123       H  0.53009641  0.36627204  0.04419187     0.07500
H1124       H  0.46278842  0.37363260  0.18369629     0.02400
H1125       H  0.43403029  0.35773616  0.16026272     0.02900
H1126       H  0.43924980  0.39747874  0.16142899     0.06400
H1127       H  0.43024480  0.27952258  0.12756375     0.05400
H1128       H  0.45920781  0.29581120  0.10495642    -0.00400
H1129       H  0.43294336  0.31945871  0.12442583     0.01100
H1130       H  0.53077111  0.31938330  0.23714910     0.04800
H1131       H  0.52929408  0.27918412  0.23981941     0.06700
H1132       H  0.55413462  0.29630420  0.21363545     0.07600
C1133       C  0.64732826  0.11728630  0.99557884    -0.22100
C1134       C  0.63705994  0.14403485  0.00819886     0.09900
C1135       C  0.60732498  0.14656753  0.01777836     0.10300
C1136       C  0.58823232  0.12210949  0.01438476    -0.17000
C1137       C  0.59812093  0.09511550  0.00143372    -0.27400
C1138       C  0.62830322  0.09263589  0.99208269     0.18600
C1139       C  0.65814082  0.16905000  0.01119319     0.12600
C1140       C  0.59579737  0.17507942  0.03152250    -0.11700
H1141       H  0.56536249  0.12417896  0.02205184     0.12900
C1142       C  0.64064097  0.06469608  0.97777789    -0.22600
H1143       H  0.67041312  0.11580023  0.98840949     0.08500
C1144       C  0.67743056  0.17098762  0.03597250     0.04900
C1145       C  0.69972019  0.19283271  0.03605859    -0.19800
C1146       C  0.70356117  0.21220154  0.01162132    -0.12100
C1147       C  0.68358242  0.21076518  0.98713256     0.13600
C1148       C  0.66059665  0.18953915  0.98761839    -0.22500
C1149       C  0.67523846  0.14924786  0.06166637    -0.05600
H1150       H  0.71534586  0.19377477  0.05458486     0.15100
C1151       C  0.68709175  0.22928524  0.95918359    -0.15800
H1152       H  0.64566253  0.18766673  0.96859602     0.09400
H1153       H  0.64031124  0.04594116  0.99402903     0.07300
H1154       H  0.66417308  0.06766953  0.97051124     0.08500
H1155       H  0.62725404  0.05880499  0.95770715     0.07500
H1156       H  0.59805226  0.19371998  0.01526378     0.02400
H1157       H  0.60880203  0.18044734  0.05197291     0.02900
H1158       H  0.57189187  0.17323888  0.03789131     0.06400
H1159       H  0.69210741  0.15399506  0.07926127     0.05400
H1160       H  0.67897849  0.12612176  0.05346912    -0.00400
H1161       H  0.65275517  0.15067988  0.07200557     0.01100
H1162       H  0.68824660  0.21433700  0.93938657     0.04800
H1163       H  0.70768986  0.24286067  0.95906624     0.06700
H1164       H  0.66754855  0.24438705  0.95671263     0.07600
C1165       C  0.38883590  0.84389997  0.01968793    -0.22100
C1166       C  0.36102898  0.84685797  0.00591119     0.09900
C1167       C  0.35311578  0.87403177  0.99196757     0.10300
C1168       C  0.37397368  0.89742550  0.99094551    -0.17000
C1169       C  0.40241639  0.89428443  0.00387721    -0.27400
C1170       C  0.40961312  0.86727669  0.01918139     0.18600
C1171       C  0.33969597  0.82188561  0.00833589     0.12600
C1172       C  0.32260194  0.87832081  0.97839995    -0.11700
H1173       H  0.36817525  0.91807196  0.97963355     0.12900
C1174       C  0.43852197  0.86303176  0.03611531    -0.22600
H1175       H  0.39416129  0.82317608  0.03112126     0.08500
C1176       C  0.33745739  0.79959181  0.98612397     0.04900
C1177       C  0.31509803  0.77773487  0.98861226    -0.19800
C1178       C  0.29501688  0.77808948  0.01268643    -0.12100
C1179       C  0.29868053  0.79935743  0.03586745     0.13600
C1180       C  0.32101645  0.82098589  0.03334561    -0.22500
C1181       C  0.35796832  0.79954375  0.95943395    -0.05600
H1182       H  0.31203769  0.76161953  0.97076826     0.15100
C1183       C  0.27906036  0.80034061  0.06328717    -0.15800
H1184       H  0.32334714  0.83784522  0.05062668     0.09400
H1185       H  0.45762266  0.86179811  0.02037396     0.07300
H1186       H  0.43860383  0.84192754  0.04923982     0.08500
H1187       H  0.44176814  0.88173504  0.05211597     0.07500
H1188       H  0.30522748  0.87534744  0.99587159     0.02400
H1189       H  0.31895459  0.86168064  0.96035983     0.02900
H1190       H  0.31993973  0.90101005  0.96864090     0.06400
H1191       H  0.35302990  0.78067634  0.94406255     0.05400
H1192       H  0.38147640  0.79740183  0.96704190    -0.00400
H1193       H  0.35539997  0.82071650  0.94672200     0.01100
H1194       H  0.29318536  0.79871447  0.08365504     0.04800
H1195       H  0.26270524  0.78180402  0.06422365     0.06700
H1196       H  0.26663480  0.82182592  0.06381267     0.07600
C1197       C  0.64306549  0.86885182  0.00629983    -0.22100
C1198       C  0.63348151  0.84210756  0.99312987     0.09900
C1199       C  0.60527308  0.84054970  0.97947019     0.10300
C1200       C  0.58702499  0.86598289  0.97943156    -0.17000
C1201       C  0.59625945  0.89295242  0.99293227    -0.27400
C1202       C  0.62486022  0.89438132  0.00643844     0.18600
C1203       C  0.65367766  0.81611952  0.99440942     0.12600
C1204       C  0.59435219  0.81201462  0.96530922    -0.11700
H1205       H  0.56524306  0.86466484  0.96891887     0.12900
C1206       C  0.63608140  0.92212497  0.02193485    -0.22600
H1207       H  0.66490698  0.86958560  0.01676402     0.08500
C1208       C  0.67604121  0.81203033  0.97265900     0.04900
C1209       C  0.69854780  0.79097223  0.97787379    -0.19800
C1210       C  0.69960333  0.77461414  0.00466428    -0.12100
C1211       C  0.67614467  0.77745526  0.02566658     0.13600
C1212       C  0.65311704  0.79793649  0.01995031    -0.22500
C1213       C  0.67708859  0.83101897  0.94480507    -0.05600
H1214       H  0.71659077  0.78866466  0.96185816     0.15100
C1215       C  0.67573634  0.76123198  0.05521410    -0.15800
H1216       H  0.63578401  0.80131591  0.03655795     0.09400
H1217       H  0.63863634  0.94054996  0.00549004     0.07300
H1218       H  0.65824226  0.91845372  0.03250533     0.08500
H1219       H  0.62023747  0.92886688  0.03982042     0.07500
H1220       H  0.59358058  0.79397926  0.98237313     0.02400
H1221       H  0.60963229  0.80521112  0.94700093     0.02900
H1222       H  0.57161044  0.81463495  0.95571222     0.06400
H1223       H  0.69632116  0.82502766  0.93030333     0.05400
H1224       H  0.67926170  0.85495077  0.95098662    -0.00400
H1225       H  0.65633346  0.82789403  0.93162186     0.01100
H1226       H  0.67429792  0.77769253  0.07374938     0.04800
H1227       H  0.69596132  0.74762207  0.05908368     0.06700
H1228       H  0.65595120  0.74631091  0.05616556     0.07600
C1229       C  0.35162310  0.11741181  0.99776330    -0.22100
C1230       C  0.36217956  0.14606226  0.99096757     0.09900
C1231       C  0.39260696  0.15046014  0.98487243     0.10300
C1232       C  0.41203787  0.12595827  0.98592195    -0.17000
C1233       C  0.40178338  0.09681471  0.99248235    -0.27400
C1234       C  0.37084163  0.09260779  0.99840972     0.18600
C1235       C  0.34057956  0.17096695  0.98984709     0.12600
C1236       C  0.40444328  0.18094600  0.97682939    -0.11700
H1237       H  0.43546096  0.12980288  0.98135560     0.12900
C1238       C  0.35753806  0.06249929  0.00574374    -0.22600
H1239       H  0.32802558  0.11449484  0.00235028     0.08500
C1240       C  0.32174744  0.17493823  0.96489454     0.04900
C1241       C  0.29893553  0.19631324  0.96627994    -0.19800
C1242       C  0.29477180  0.21384743  0.99195921    -0.12100
C1243       C  0.31445613  0.21070689  0.01648850     0.13600
C1244       C  0.33738998  0.18941029  0.01497834    -0.22500
C1245       C  0.32540631  0.15617939  0.93713504    -0.05600
H1246       H  0.28348479  0.19852854  0.94772076     0.15100
C1247       C  0.31083872  0.22797874  0.04520002    -0.15800
H1248       H  0.35199395  0.18617527  0.03407673     0.09400
H1249       H  0.36022874  0.04711280  0.98646332     0.07300
H1250       H  0.33324005  0.06403053  0.01050687     0.08500
H1251       H  0.36848176  0.05301675  0.02593642     0.07500
H1252       H  0.40040080  0.19674038  0.99554539     0.02400
H1253       H  0.39296200  0.18930339  0.95643868     0.02900
H1254       H  0.42881947  0.18044287  0.97226239     0.06400
H1255       H  0.30903236  0.16245167  0.91953839     0.05400
H1256       H  0.32206607  0.13220651  0.94260358    -0.00400
H1257       H  0.34820561  0.15931569  0.92789405     0.01100
H1258       H  0.30810062  0.21214495  0.06414804     0.04800
H1259       H  0.29114327  0.24292456  0.04511114     0.06700
H1260       H  0.33104175  0.24180674  0.04913044     0.07600
C1261       C  0.48975497  0.14417318  0.87358325    -0.22100
C1262       C  0.50477168  0.13771314  0.84683530     0.09900
C1263       C  0.51752812  0.10911477  0.84294516     0.10300
C1264       C  0.51563427  0.08789983  0.86618818    -0.17000
C1265       C  0.50104065  0.09439003  0.89336467    -0.27400
C1266       C  0.48740644  0.12291049  0.89673680     0.18600
C1267       C  0.50612131  0.16104015  0.82295258     0.12600
C1268       C  0.53269128  0.10083631  0.81402968    -0.11700
H1269       H  0.52585683  0.06614201  0.86314247     0.12900
C1270       C  0.46918609  0.13083872  0.92398139    -0.22600
H1271       H  0.47955261  0.16600012  0.87620867     0.08500
C1272       C  0.48137772  0.16699144  0.80424618     0.04900
C1273       C  0.48327875  0.18980276  0.78262874    -0.19800
C1274       C  0.50945399  0.20666357  0.77896379    -0.12100
C1275       C  0.53466358  0.19982104  0.79681608     0.13600
C1276       C  0.53250909  0.17750877  0.81895388    -0.22500
C1277       C  0.45308637  0.14901765  0.80690321    -0.05600
H1278       H  0.46415045  0.19480576  0.76863229     0.15100
C1279       C  0.56439849  0.21478469  0.79225995    -0.15800
H1280       H  0.55170981  0.17260503  0.83291464     0.09400
H1281       H  0.45816345  0.15296770  0.92158893     0.07300
H1282       H  0.48368729  0.13198873  0.94407460     0.08500
H1283       H  0.45140203  0.11387589  0.92737156     0.07500
H1284       H  0.55202901  0.11582260  0.81005608     0.02400
H1285       H  0.51665506  0.10309089  0.79519430     0.02900
H1286       H  0.54098693  0.07743071  0.81437503     0.06400
H1287       H  0.43608828  0.15617016  0.79026022     0.05400
H1288       H  0.44338365  0.15181021  0.82957867    -0.00400
H1289       H  0.45806374  0.12500381  0.80304949     0.01100
H1290       H  0.57036216  0.22783222  0.81252161     0.04800
H1291       H  0.56456023  0.22988281  0.77262720     0.06700
H1292       H  0.58179537  0.19752132  0.78834177     0.07600
C1293       C  0.49117177  0.84335963  0.87960951    -0.22100
C1294       C  0.49697807  0.85192754  0.85009208     0.09900
C1295       C  0.50125850  0.88231226  0.84319711     0.10300
C1296       C  0.50065932  0.90350160  0.86630489    -0.17000
C1297       C  0.49595478  0.89512156  0.89640489    -0.27400
C1298       C  0.49051931  0.86438922  0.90293083     0.18600
C1299       C  0.50037485  0.82843089  0.82705920     0.12600
C1300       C  0.50709871  0.89225069  0.81149939    -0.11700
H1301       H  0.50452004  0.92674046  0.86068612     0.12900
C1302       C  0.48391606  0.85307521  0.93407431    -0.22600
H1303       H  0.48774449  0.81985499  0.88445104     0.08500
C1304       C  0.52746803  0.81263609  0.82399306     0.04900
C1305       C  0.53002881  0.79080518  0.80167263    -0.19800
C1306       C  0.50615816  0.78436539  0.78242822    -0.12100
C1307       C  0.47882619  0.79980481  0.78588305     0.13600
C1308       C  0.47633029  0.82184919  0.80809319    -0.22500
C1309       C  0.55367277  0.81896235  0.84418578    -0.05600
H1310       H  0.55083207  0.77874174  0.79896739     0.15100
C1311       C  0.45176189  0.79306381  0.76715222    -0.15800
H1312       H  0.45544739  0.83383005  0.81080151     0.09400
H1313       H  0.50357737  0.85650555  0.94881060     0.07300
H1314       H  0.47893348  0.82875265  0.93425756     0.08500
H1315       H  0.46407613  0.86477730  0.94331184     0.07500
H1316       H  0.48787275  0.88610324  0.79707175     0.02400
H1317       H  0.52758059  0.88121945  0.80287805     0.02900
H1318       H  0.51029133  0.91682514  0.80995992     0.06400
H1319       H  0.57335341  0.80502570  0.83832468     0.05400
H1320       H  0.54756152  0.81406825  0.86775999    -0.00400
H1321       H  0.56019595  0.84282608  0.84221936     0.01100
H1322       H  0.43305883  0.78615012  0.78191987     0.04800
H1323       H  0.45566312  0.77484521  0.75092493     0.06700
H1324       H  0.44507631  0.81339155  0.75454144     0.07600
C1325       C  0.51175282  0.84492944  0.11379095    -0.22100
C1326       C  0.49875986  0.85134801  0.14155815     0.09900
C1327       C  0.48777295  0.88040197  0.14701490     0.10300
C1328       C  0.48885491  0.90203493  0.12412201    -0.17000
C1329       C  0.50108503  0.89558872  0.09579741    -0.27400
C1330       C  0.51336125  0.86658618  0.09093217     0.18600
C1331       C  0.49687723  0.82720660  0.16452473     0.12600
C1332       C  0.47514900  0.88863545  0.17714347    -0.11700
H1333       H  0.47977226  0.92408541  0.12836971     0.12900
C1334       C  0.52915891  0.85828208  0.06227374    -0.22600
H1335       H  0.52064805  0.82270474  0.10999682     0.08500
C1336       C  0.47136056  0.80883681  0.16705248     0.04900
C1337       C  0.47055537  0.78630498  0.18902757    -0.19800
C1338       C  0.49498786  0.78101877  0.20804786    -0.12100
C1339       C  0.52114175  0.79845142  0.20438469     0.13600
C1340       C  0.52146414  0.82177757  0.18322232    -0.22500
C1341       C  0.44516611  0.81274952  0.14625692    -0.05600
H1342       H  0.45073234  0.77264635  0.19146638     0.15100
C1343       C  0.54956186  0.79202898  0.22114149    -0.15800
H1344       H  0.54138649  0.83530390  0.18068129     0.09400
H1345       H  0.53953691  0.83575738  0.06367081     0.07300
H1346       H  0.54725308  0.87459457  0.05756911     0.08500
H1347       H  0.51310895  0.85776326  0.04337066     0.07500
H1348       H  0.49245756  0.88536968  0.19464921     0.02400
H1349       H  0.45560393  0.87433609  0.18237700     0.02900
H1350       H  0.46779990  0.91234573  0.17785373     0.06400
H1351       H  0.42715148  0.79638271  0.15106940     0.05400
H1352       H  0.45253184  0.80943218  0.12276557    -0.00400
H1353       H  0.43573538  0.83556197  0.14863507     0.01100
H1354       H  0.56818131  0.78917575  0.20498405     0.04800
H1355       H  0.54827972  0.77115103  0.23432665     0.06700
H1356       H  0.55481880  0.81097235  0.23629234     0.07600
C1357       C  0.48747819  0.14951603  0.10818668    -0.22100
C1358       C  0.49379841  0.14215074  0.13792853     0.09900
C1359       C  0.50216578  0.11264000  0.14514919     0.10300
C1360       C  0.50440287  0.09115283  0.12230611    -0.17000
C1361       C  0.49796795  0.09817760  0.09221433    -0.27400
C1362       C  0.48929373  0.12812076  0.08519891     0.18600
C1363       C  0.48969404  0.16537417  0.16133370     0.12600
C1364       C  0.50816539  0.10369882  0.17709735    -0.11700
H1365       H  0.51096347  0.06858634  0.12819409     0.12900
C1366       C  0.48103183  0.13805602  0.05395561    -0.22600
H1367       H  0.48064758  0.17220831  0.10304533     0.08500
C1368       C  0.51316414  0.18443436  0.17037723     0.04900
C1369       C  0.50788561  0.20596858  0.19276174    -0.19800
C1370       C  0.47961574  0.20887832  0.20603823    -0.12100
C1371       C  0.45593435  0.19060146  0.19600120     0.13600
C1372       C  0.46129970  0.16892863  0.17395241    -0.22500
C1373       C  0.54355834  0.18216517  0.15616522    -0.05600
H1374       H  0.52579926  0.22048642  0.20011093     0.15100
C1375       C  0.42472651  0.19467784  0.20776356    -0.15800
H1376       H  0.44322390  0.15470689  0.16637731     0.09400
H1377       H  0.47358591  0.16174713  0.05336434     0.07300
H1378       H  0.46232340  0.12425299  0.04530177     0.08500
H1379       H  0.50069492  0.13627605  0.03894240     0.07500
H1380       H  0.48780487  0.10737608  0.19078433     0.02400
H1381       H  0.52670275  0.11730267  0.18635641     0.02900
H1382       H  0.51448278  0.07975144  0.17894748     0.06400
H1383       H  0.55935310  0.19877235  0.16567191     0.05400
H1384       H  0.54170266  0.18630935  0.13172789    -0.00400
H1385       H  0.55295528  0.15950006  0.15987689     0.01100
H1386       H  0.42379794  0.18844370  0.23170069     0.04800
H1387       H  0.41770236  0.21833249  0.20501191     0.06700
H1388       H  0.40845318  0.18037813  0.19566366     0.07600
C1389       C  0.38943402  0.01430556  0.14802552    -0.22100
C1390       C  0.36589851  0.99379756  0.14750009     0.09900
C1391       C  0.36048171  0.97666187  0.12155455     0.10300
C1392       C  0.37951479  0.97966031  0.09688467    -0.17000
C1393       C  0.40356852  0.99965962  0.09754063    -0.27400
C1394       C  0.40806843  0.01793427  0.12311779     0.18600
C1395       C  0.34463583  0.99325892  0.17262005     0.12600
C1396       C  0.33454779  0.95526439  0.11994373    -0.11700
H1397       H  0.37607637  0.96577015  0.07730914     0.12900
C1398       C  0.43134144  0.04230895  0.12452191    -0.22600
H1399       H  0.39266555  0.02822094  0.16762830     0.08500
C1400       C  0.34682612  0.97239703  0.19622352     0.04900
C1401       C  0.32293799  0.96963071  0.21643261    -0.19800
C1402       C  0.29716638  0.98716773  0.21306777    -0.12100
C1403       C  0.29616997  0.00955877  0.19067051     0.13600
C1404       C  0.32000402  0.01231057  0.17079617    -0.22500
C1405       C  0.37379533  0.95252086  0.19933373    -0.05600
H1406       H  0.32362058  0.95263035  0.23372175     0.15100
C1407       C  0.27015353  0.03063665  0.18661253    -0.15800
H1408       H  0.31877548  0.02858925  0.15282359     0.09400
H1409       H  0.44834544  0.03666474  0.14171843     0.07300
H1410       H  0.42051063  0.06376277  0.13075809     0.08500
H1411       H  0.44265250  0.04622051  0.10284937     0.07500
H1412       H  0.31326129  0.96762481  0.12300718     0.02400
H1413       H  0.33666533  0.93810748  0.13777377     0.02900
H1414       H  0.33356823  0.94360643  0.09802793     0.06400
H1415       H  0.37192819  0.93750532  0.21905647     0.05400
H1416       H  0.39409973  0.96647509  0.20212825    -0.00400
H1417       H  0.37633689  0.93845215  0.17904091     0.01100
H1418       H  0.27825250  0.05405793  0.18788905     0.04800
H1419       H  0.25264587  0.02803710  0.20390725     0.06700
H1420       H  0.25985558  0.02693553  0.16431004     0.07600
C1421       C  0.65963462  0.96881700  0.79900269    -0.22100
C1422       C  0.65800315  0.99317842  0.81868813     0.09900
C1423       C  0.67845820  0.01692510  0.81591825     0.10300
C1424       C  0.70156635  0.01473630  0.79497486    -0.17000
C1425       C  0.70423079  0.98971267  0.77626518    -0.27400
C1426       C  0.68257596  0.96679473  0.77766900     0.18600
C1427       C  0.63626829  0.99254464  0.84356088     0.12600
C1428       C  0.67635845  0.04416550  0.83563326    -0.11700
H1429       H  0.71841451  0.03210617  0.79400843     0.12900
C1430       C  0.68385494  0.93933671  0.75820765    -0.22600
H1431       H  0.64363976  0.95075162  0.80110377     0.08500
C1432       C  0.60731714  0.00424312  0.84030602     0.04900
C1433       C  0.58812387  0.00447212  0.86506157    -0.19800
C1434       C  0.59716086  0.99328851  0.89319041    -0.12100
C1435       C  0.62640932  0.98141342  0.89626237     0.13600
C1436       C  0.64550228  0.98118698  0.87131095    -0.22500
C1437       C  0.59679511  0.01662787  0.81075166    -0.05600
H1438       H  0.56591954  0.01375766  0.86238191     0.15100
C1439       C  0.63764700  0.96838066  0.92531568    -0.15800
H1440       H  0.66795282  0.97234180  0.87344942     0.09400
H1441       H  0.66343453  0.93825639  0.74414035     0.07300
H1442       H  0.68495285  0.91905356  0.77249884     0.08500
H1443       H  0.70349939  0.93901461  0.74319051     0.07500
H1444       H  0.67857939  0.03759206  0.85948655     0.02400
H1445       H  0.65445600  0.05529352  0.83224796     0.02900
H1446       H  0.69415607  0.06065387  0.83044758     0.06400
H1447       H  0.57339910  0.02479333  0.81199260     0.05400
H1448       H  0.59791567  0.99894267  0.79336827    -0.00400
H1449       H  0.61118209  0.03562525  0.80390406     0.01100
H1450       H  0.66037236  0.95871216  0.92290878     0.04800
H1451       H  0.62252662  0.95022952  0.93291738     0.06700
H1452       H  0.63898052  0.98609269  0.94264611     0.07600
C1453       C  0.34800157  0.01444917  0.79691690    -0.22100
C1454       C  0.34570102  0.99096902  0.81755788     0.09900
C1455       C  0.32211809  0.97029922  0.81537932     0.10300
C1456       C  0.30032230  0.97457196  0.79342695    -0.17000
C1457       C  0.30107265  0.99953512  0.77442625    -0.27400
C1458       C  0.32553574  0.01945720  0.77566617     0.18600
C1459       C  0.36547297  0.99113401  0.84382397     0.12600
C1460       C  0.31881565  0.94496627  0.83740852    -0.11700
H1461       H  0.28134214  0.95955385  0.79248795     0.12900
C1462       C  0.32752240  0.04742521  0.75697422    -0.22600
H1463       H  0.36621065  0.03029510  0.79896418     0.08500
C1464       C  0.39161621  0.97380824  0.84489140     0.04900
C1465       C  0.40923338  0.97470186  0.87069932    -0.19800
C1466       C  0.40198194  0.99348732  0.89491604    -0.12100
C1467       C  0.37611559  0.01163306  0.89333479     0.13600
C1468       C  0.35780617  0.00959339  0.86798872    -0.22500
C1469       C  0.40145152  0.95527736  0.81850773    -0.05600
H1470       H  0.42929032  0.96112633  0.87170125     0.15100
C1471       C  0.36792397  0.03461047  0.91664442    -0.15800
H1472       H  0.33782336  0.02325202  0.86659277     0.09400
H1473       H  0.34690424  0.04572764  0.74156771     0.07300
H1474       H  0.33067412  0.06710660  0.77177412     0.08500
H1475       H  0.30715843  0.05163662  0.74364390     0.07500
H1476       H  0.31692210  0.95398935  0.86046762     0.02400
H1477       H  0.33845778  0.92993432  0.83619393     0.02900
H1478       H  0.29858151  0.93137947  0.83278836     0.06400
H1479       H  0.42271918  0.94332181  0.82311164     0.05400
H1480       H  0.40494669  0.97001965  0.79881846    -0.00400
H1481       H  0.38426496  0.93837029  0.81290919     0.01100
H1482       H  0.36590370  0.05689417  0.90584023     0.04800
H1483       H  0.38465619  0.03691742  0.93467481     0.06700
H1484       H  0.34609974  0.02871578  0.92683860     0.07600
C1485       C  0.45294359  0.16695784  0.31666081    -0.22100
C1486       C  0.48057208  0.15234715  0.31684193     0.09900
C1487       C  0.50116885  0.15760555  0.29354636     0.10300
C1488       C  0.49508348  0.18018018  0.27255597    -0.17000
C1489       C  0.46844461  0.19669712  0.27396493    -0.27400
C1490       C  0.44634817  0.18864894  0.29511529     0.18600
C1491       C  0.48672902  0.13110628  0.34137997     0.12600
C1492       C  0.52942204  0.13950526  0.29090681    -0.11700
H1493       H  0.51190499  0.18604893  0.25616394     0.12900
C1494       C  0.41565652  0.20252104  0.29560518    -0.22600
H1495       H  0.43655221  0.16166300  0.33372467     0.08500
C1496       C  0.50360686  0.13931408  0.36679390     0.04900
C1497       C  0.50720274  0.11867234  0.39025341    -0.19800
C1498       C  0.49368003  0.09037455  0.38909767    -0.12100
C1499       C  0.47576363  0.08280724  0.36392214     0.13600
C1500       C  0.47287909  0.10319912  0.34033711    -0.22500
C1501       C  0.51685446  0.17014717  0.36963820    -0.05600
H1502       H  0.52051608  0.12468243  0.40959880     0.15100
C1503       C  0.45822083  0.05404320  0.36218230    -0.15800
H1504       H  0.45918791  0.09763457  0.32110741     0.09400
H1505       H  0.41224671  0.21455435  0.31705143     0.07300
H1506       H  0.39857818  0.18463298  0.29362023     0.08500
H1507       H  0.41192876  0.21835943  0.27688242     0.07500
H1508       H  0.52369045  0.11548300  0.28848598     0.02400
H1509       H  0.54349360  0.14239585  0.31110572     0.02900
H1510       H  0.54277705  0.14627068  0.27108493     0.06400
H1511       H  0.52898984  0.17295609  0.39113898     0.05400
H1512       H  0.49878194  0.18712851  0.36870386    -0.00400
H1513       H  0.53282987  0.17440217  0.35118610     0.01100
H1514       H  0.44334235  0.05346218  0.34228850     0.04800
H1515       H  0.44390876  0.05176264  0.38233459     0.06700
H1516       H  0.47350496  0.03462068  0.36032569     0.07600
C1517       C  0.52355520  0.88102684  0.34286643    -0.22100
C1518       C  0.50547943  0.85569923  0.34506324     0.09900
C1519       C  0.48934809  0.85003280  0.37158186     0.10300
C1520       C  0.49091888  0.87057664  0.39519301    -0.17000
C1521       C  0.50820733  0.89659334  0.39274235    -0.27400
C1522       C  0.52519339  0.90166731  0.36636083     0.18600
C1523       C  0.50518091  0.83435053  0.32000540     0.12600
C1524       C  0.47056734  0.82229263  0.37493296    -0.11700
H1525       H  0.47801391  0.86668664  0.41534503     0.12900
C1526       C  0.54573558  0.92822647  0.36295761    -0.22600
H1527       H  0.53638132  0.88462048  0.32260323     0.08500
C1528       C  0.48305742  0.83528262  0.29753065     0.04900
C1529       C  0.48193150  0.81225862  0.27624488    -0.19800
C1530       C  0.50231433  0.78848905  0.27736837    -0.12100
C1531       C  0.52573627  0.78886269  0.29866639     0.13600
C1532       C  0.52687369  0.81190542  0.31969127    -0.22500
C1533       C  0.46019780  0.85997634  0.29666921    -0.05600
H1534       H  0.46396828  0.81176626  0.25997935     0.15100
C1535       C  0.54951610  0.76501849  0.30033664    -0.15800
H1536       H  0.54417477  0.81177279  0.33669306     0.09400
H1537       H  0.53266577  0.94925963  0.36183863     0.07300
H1538       H  0.55908745  0.92691997  0.34204825     0.08500
H1539       H  0.56157489  0.92912773  0.38206496     0.07500
H1540       H  0.48488829  0.80214349  0.37275323     0.02400
H1541       H  0.45307025  0.82176253  0.35735238     0.02900
H1542       H  0.45932902  0.82140881  0.39707290     0.06400
H1543       H  0.44443305  0.85722740  0.27766957     0.05400
H1544       H  0.47162029  0.88184674  0.29411699    -0.00400
H1545       H  0.44705224  0.86010562  0.31771522     0.01100
H1546       H  0.57185410  0.77554251  0.29804618     0.04800
H1547       H  0.54748882  0.74796061  0.28250245     0.06700
H1548       H  0.54826874  0.75351930  0.32233041     0.07600
C1549       C  0.52036079  0.14265493  0.61440079    -0.22100
C1550       C  0.50417019  0.13549012  0.64028408     0.09900
C1551       C  0.48850698  0.10830972  0.64196792     0.10300
C1552       C  0.48923876  0.08878314  0.61757870    -0.17000
C1553       C  0.50541012  0.09565260  0.59147548    -0.27400
C1554       C  0.52131133  0.12300567  0.58988536     0.18600
C1555       C  0.50309047  0.15716162  0.66513028     0.12600
C1556       C  0.47132342  0.09975792  0.66967359    -0.11700
H1557       H  0.47695493  0.06794735  0.61892705     0.12900
C1558       C  0.54005027  0.13124100  0.56309531    -0.22600
H1559       H  0.53230711  0.16370844  0.61347039     0.08500
C1560       C  0.52642128  0.15942063  0.68622632     0.04900
C1561       C  0.52473578  0.18129249  0.70867820    -0.19800
C1562       C  0.50030797  0.20087178  0.71013925    -0.12100
C1563       C  0.47616812  0.19730800  0.69002577     0.13600
C1564       C  0.47801215  0.17565245  0.66756966    -0.22500
C1565       C  0.55329586  0.13925222  0.68451301    -0.05600
H1566       H  0.54333357  0.18434087  0.72391477     0.15100
C1567       C  0.44832681  0.21623497  0.69145202    -0.15800
H1568       H  0.45989235  0.17336181  0.65161837     0.09400
H1569       H  0.55230265  0.15253540  0.56664065     0.07300
H1570       H  0.52563817  0.13421422  0.54310987     0.08500
H1571       H  0.55678711  0.11342944  0.55878736     0.07500
H1572       H  0.45349082  0.11643580  0.67402680     0.02400
H1573       H  0.48668504  0.09894469  0.68917176     0.02900
H1574       H  0.46062042  0.07748087  0.66737226     0.06400
H1575       H  0.56942431  0.14388146  0.70281988     0.05400
H1576       H  0.56493963  0.14261054  0.66284175    -0.00400
H1577       H  0.54613160  0.11556458  0.68633461     0.01100
H1578       H  0.44653893  0.23002449  0.67085354     0.04800
H1579       H  0.44789739  0.23122624  0.71119403     0.06700
H1580       H  0.42843567  0.20151195  0.69302356     0.07600
C1581       C  0.51046933  0.84926419  0.61730721    -0.22100
C1582       C  0.50040371  0.85955364  0.64512677     0.09900
C1583       C  0.49083556  0.88927925  0.64830758     0.10300
C1584       C  0.49135945  0.90820933  0.62335208    -0.17000
C1585       C  0.50162654  0.89826439  0.59521666    -0.27400
C1586       C  0.51134145  0.86816013  0.59223715     0.18600
C1587       C  0.50064840  0.83859041  0.67060757     0.12600
C1588       C  0.48005861  0.90095451  0.67801642    -0.11700
H1589       H  0.48368071  0.93103446  0.62598040     0.12900
C1590       C  0.52352045  0.85576574  0.56330800    -0.22600
H1591       H  0.51792651  0.82627621  0.61535533     0.08500
C1592       C  0.47857119  0.81636966  0.67347433     0.04900
C1593       C  0.48246016  0.79374442  0.69472706    -0.19800
C1594       C  0.50772739  0.79308422  0.71327597    -0.12100
C1595       C  0.52893284  0.81638356  0.71165709     0.13600
C1596       C  0.52497073  0.83907306  0.69036134    -0.22500
C1597       C  0.45132033  0.81619693  0.65368522    -0.05600
H1598       H  0.46633523  0.77571752  0.69603465     0.15100
C1599       C  0.55678663  0.81705280  0.73054626    -0.15800
H1600       H  0.54178256  0.85635795  0.68804984     0.09400
H1601       H  0.50579824  0.85559153  0.54594090     0.07300
H1602       H  0.53148779  0.83238007  0.56591829     0.08500
H1603       H  0.54275478  0.86944416  0.55566589     0.07500
H1604       H  0.49822836  0.89925543  0.69484310     0.02400
H1605       H  0.46061121  0.88762666  0.68570581     0.02900
H1606       H  0.47309573  0.92474966  0.67656876     0.06400
H1607       H  0.43616905  0.79731385  0.65914930     0.05400
H1608       H  0.45802672  0.81403716  0.62987914    -0.00400
H1609       H  0.43871825  0.83736406  0.65671675     0.01100
H1610       H  0.55896449  0.79729934  0.74530473     0.04800
H1611       H  0.57673716  0.81762090  0.71580853     0.06700
H1612       H  0.55665031  0.83741125  0.74475297     0.07600
C1613       C  0.35200691  0.00769501  0.37642282    -0.22100
C1614       C  0.35744838  0.99296645  0.34933900     0.09900
C1615       C  0.38577877  0.98020564  0.34411243     0.10300
C1616       C  0.40790688  0.98192466  0.36640307    -0.17000
C1617       C  0.40240188  0.99583115  0.39414036    -0.27400
C1618       C  0.37396605  0.00931523  0.39893635     0.18600
C1619       C  0.33293848  0.99046998  0.32699978     0.12600
C1620       C  0.39258337  0.96464772  0.31498921    -0.11700
H1621       H  0.42947401  0.97171921  0.36230811     0.12900
C1622       C  0.36647484  0.02600818  0.42730471    -0.22600
H1623       H  0.33021956  0.01762046  0.38009310     0.08500
C1624       C  0.31443079  0.96497768  0.32591754     0.04900
C1625       C  0.29273888  0.96268193  0.30336498    -0.19800
C1626       C  0.28813430  0.98577084  0.28258515    -0.12100
C1627       C  0.30547165  0.01212262  0.28482535     0.13600
C1628       C  0.32808202  0.01388158  0.30664026    -0.22500
C1629       C  0.31720883  0.94044569  0.34887618    -0.05600
H1630       H  0.27922558  0.94267890  0.30180798     0.15100
C1631       C  0.30005012  0.03907528  0.26544360    -0.15800
H1632       H  0.34178242  0.03380693  0.30803252     0.09400
H1633       H  0.36584182  0.01037331  0.44657924     0.07300
H1634       H  0.34419181  0.03686748  0.42599944     0.08500
H1635       H  0.38326849  0.04381266  0.43135311     0.07500
H1636       H  0.38964215  0.98051291  0.29609480     0.02400
H1637       H  0.37728204  0.94541284  0.31181900     0.02900
H1638       H  0.41585148  0.95606004  0.31437565     0.06400
H1639       H  0.30087019  0.92221188  0.34484333     0.05400
H1640       H  0.31296113  0.94972088  0.37152351    -0.00400
H1641       H  0.33995035  0.93063609  0.34829744     0.01100
H1642       H  0.29541614  0.05877634  0.27982011     0.04800
H1643       H  0.28066469  0.03623904  0.25043202     0.06700
H1644       H  0.32014845  0.04365265  0.25164525     0.07600
C1645       C  0.65450560  0.00890167  0.61096354    -0.22100
C1646       C  0.64721633  0.99689621  0.63897621     0.09900
C1647       C  0.61800890  0.98641656  0.64413970     0.10300
C1648       C  0.59681113  0.98775237  0.62097218    -0.17000
C1649       C  0.60403272  0.99907529  0.59240562    -0.27400
C1650       C  0.63344897  0.01014360  0.58756493     0.18600
C1651       C  0.67081273  0.99473626  0.66230927     0.12600
C1652       C  0.60933994  0.97344891  0.67403061    -0.11700
H1653       H  0.57454855  0.97924358  0.62514487     0.12900
C1654       C  0.64298920  0.02385924  0.55823248    -0.22600
H1655       H  0.67701566  0.01703426  0.60732906     0.08500
C1656       C  0.68984744  0.96964107  0.66402548     0.04900
C1657       C  0.71179628  0.96840713  0.68645000    -0.19800
C1658       C  0.71540347  0.99174921  0.70710480    -0.12100
C1659       C  0.69694838  0.01734317  0.70474237     0.13600
C1660       C  0.67457206  0.01830809  0.68265126    -0.22500
C1661       C  0.68686703  0.94411514  0.64226398    -0.05600
H1662       H  0.72596324  0.94886923  0.68829152     0.15100
C1663       C  0.70097983  0.04438539  0.72430328    -0.15800
H1664       H  0.66025180  0.03779328  0.68096758     0.09400
H1665       H  0.64291759  0.00673712  0.54030233     0.07300
H1666       H  0.66600531  0.03303512  0.55942287     0.08500
H1667       H  0.62775717  0.04251854  0.55220272     0.07500
H1668       H  0.61260864  0.99042385  0.69184424     0.02400
H1669       H  0.62339716  0.95361771  0.67904398     0.02900
H1670       H  0.58558264  0.96633213  0.67441638     0.06400
H1671       H  0.70352995  0.92624991  0.64671922     0.05400
H1672       H  0.69035698  0.95236102  0.61908735    -0.00400
H1673       H  0.66423962  0.93415863  0.64401601     0.01100
H1674       H  0.70464372  0.06439741  0.71005618     0.04800
H1675       H  0.72048176  0.04240199  0.73938085     0.06700
H1676       H  0.68060664  0.04788606  0.73802183     0.07600
C1677       C  0.35235856  0.98748670  0.60990655    -0.22100
C1678       C  0.35975191  0.99725090  0.63869290     0.09900
C1679       C  0.38962668  0.00458313  0.64531929     0.10300
C1680       C  0.41130713  0.00321604  0.62257217    -0.17000
C1681       C  0.40402778  0.99424931  0.59318892    -0.27400
C1682       C  0.37395786  0.98557305  0.58711327     0.18600
C1683       C  0.33568383  0.00005724  0.66144058     0.12600
C1684       C  0.39857051  0.01378546  0.67649025    -0.11700
H1685       H  0.43405362  0.00956073  0.62784013     0.12900
C1686       C  0.36411643  0.97355785  0.55711230    -0.22600
H1687       H  0.32937232  0.98146850  0.60524653     0.08500
C1688       C  0.31980011  0.02707217  0.66523123     0.04900
C1689       C  0.29735733  0.02882146  0.68713486    -0.19800
C1690       C  0.29058935  0.00427997  0.70549660    -0.12100
C1691       C  0.30568511  0.97690558  0.70086938     0.13600
C1692       C  0.32827474  0.97521023  0.67909673    -0.22500
C1693       C  0.32660457  0.05401641  0.64618194    -0.05600
H1694       H  0.28534888  0.04959355  0.69046141     0.15100
C1695       C  0.29770462  0.94890134  0.71772913    -0.15800
H1696       H  0.34001093  0.95428466  0.67566567     0.09400
H1697       H  0.36581959  0.99115695  0.53971183     0.07300
H1698       H  0.34047375  0.96606802  0.55744999     0.08500
H1699       H  0.37802696  0.95396635  0.55086786     0.07500
H1700       H  0.39338987  0.99546068  0.69244089     0.02400
H1701       H  0.38612323  0.03415301  0.68323914     0.02900
H1702       H  0.42282986  0.01870275  0.67802466     0.06400
H1703       H  0.31223370  0.07336264  0.65214593     0.05400
H1704       H  0.32275652  0.04859044  0.62224692    -0.00400
H1705       H  0.35024713  0.06077222  0.64926764     0.01100
H1706       H  0.29181018  0.93098895  0.70158513     0.04800
H1707       H  0.27826537  0.95197436  0.73274123     0.06700
H1708       H  0.31711745  0.94148516  0.73130413     0.07600
C1709       C  0.65862220  0.02634852  0.19074627    -0.22100
C1710       C  0.66190258  0.00551086  0.16754012     0.09900
C1711       C  0.68819355  0.98834623  0.16550610     0.10300
C1712       C  0.71073609  0.99243435  0.18678380    -0.17000
C1713       C  0.70813256  0.01406677  0.20940232    -0.27400
C1714       C  0.68183479  0.03149092  0.21127351     0.18600
C1715       C  0.63902133  0.00400126  0.14377355     0.12600
C1716       C  0.69290714  0.96655383  0.14021956    -0.11700
H1717       H  0.73114087  0.97947606  0.18506824     0.12900
C1718       C  0.67837332  0.05706482  0.23288315    -0.22600
H1719       H  0.63855197  0.03988708  0.19175699     0.08500
C1720       C  0.61467015  0.98418442  0.14554244     0.04900
C1721       C  0.59462448  0.98250448  0.12146994    -0.19800
C1722       C  0.59860304  0.00001838  0.09560832    -0.12100
C1723       C  0.62279204  0.02030307  0.09419192     0.13600
C1724       C  0.64273155  0.02197594  0.11835240    -0.22500
C1725       C  0.60998301  0.96483444  0.17274124    -0.05600
H1726       H  0.57583731  0.96727750  0.12273659     0.15100
C1727       C  0.62715496  0.04093485  0.06785243    -0.15800
H1728       H  0.66151004  0.03723250  0.11739090     0.09400
H1729       H  0.65990211  0.05217968  0.24871320     0.07300
H1730       H  0.67299051  0.07781087  0.22031245     0.08500
H1731       H  0.69895506  0.06156245  0.24581913     0.07500
H1732       H  0.69236825  0.97861198  0.11849514     0.02400
H1733       H  0.67503703  0.94938116  0.14043710     0.02900
H1734       H  0.71477586  0.95495523  0.14201424     0.06400
H1735       H  0.58977176  0.95062348  0.17051175     0.05400
H1736       H  0.60723172  0.97914314  0.19284725    -0.00400
H1737       H  0.62955742  0.94994330  0.17600427     0.01100
H1738       H  0.64617912  0.05646479  0.07137978     0.04800
H1739       H  0.60674474  0.05461273  0.06431436     0.06700
H1740       H  0.63195379  0.02771864  0.04742508     0.07600
C1741       C  0.65328192  0.98483900  0.37299090    -0.22100
C1742       C  0.64574718  0.99753107  0.34533528     0.09900
C1743       C  0.61622590  0.00730237  0.34038511     0.10300
C1744       C  0.59508739  0.00498690  0.36354742    -0.17000
C1745       C  0.60263326  0.99321331  0.39186012    -0.27400
C1746       C  0.63223503  0.98240990  0.39629674     0.18600
C1747       C  0.66959329  0.00201621  0.32255665     0.12600
C1748       C  0.60714561  0.02049844  0.31070437    -0.11700
H1749       H  0.57262845  0.01311584  0.35960076     0.12900
C1750       C  0.64199023  0.96772243  0.42509669    -0.22600
H1751       H  0.67601388  0.97724490  0.37649127     0.08500
C1752       C  0.68647390  0.02863534  0.32189419     0.04900
C1753       C  0.70884902  0.03216619  0.30021181    -0.19800
C1754       C  0.71513174  0.00965567  0.27930612    -0.12100
C1755       C  0.69864577  0.98271846  0.28028087     0.13600
C1756       C  0.67584574  0.97933317  0.30174682    -0.22500
C1757       C  0.68094747  0.05329334  0.34417380    -0.05600
H1758       H  0.72133149  0.05285029  0.29918933     0.15100
C1759       C  0.70515459  0.95693871  0.25968222    -0.15800
H1760       H  0.66312401  0.95873755  0.30251028     0.09400
H1761       H  0.64185101  0.98416785  0.44364695     0.07300
H1762       H  0.66507101  0.95874417  0.42351778     0.08500
H1763       H  0.62692552  0.94874902  0.43045531     0.07500
H1764       H  0.61078122  0.00382832  0.29267110     0.02400
H1765       H  0.62067161  0.04071152  0.30587456     0.02900
H1766       H  0.58321911  0.02706003  0.31047483     0.06400
H1767       H  0.69624978  0.07250083  0.34061113     0.05400
H1768       H  0.68452560  0.04474397  0.36723162    -0.00400
H1769       H  0.65766918  0.06155039  0.34207255     0.01100
H1770       H  0.71050748  0.93676439  0.27315257     0.04800
H1771       H  0.72440913  0.96125233  0.24475015     0.06700
H1772       H  0.68523513  0.95227073  0.24563894     0.07600
C1773       C  0.37893554  0.85089240  0.50725818    -0.22100
C1774       C  0.35257915  0.85966362  0.49276111     0.09900
C1775       C  0.35076597  0.88783105  0.47897464     0.10300
C1776       C  0.37579591  0.90651763  0.47938743    -0.17000
C1777       C  0.40257572  0.89784089  0.49359000    -0.27400
C1778       C  0.40403456  0.86965234  0.50798647     0.18600
C1779       C  0.32796299  0.83794117  0.49069658     0.12600
C1780       C  0.32244518  0.89810468  0.46389396    -0.11700
H1781       H  0.37440180  0.92808901  0.46839841     0.12900
C1782       C  0.43140248  0.85943446  0.52481687    -0.22600
H1783       H  0.37988259  0.82906930  0.51779585     0.08500
C1784       C  0.32750501  0.81659672  0.46756900     0.04900
C1785       C  0.30646780  0.79357431  0.46860602    -0.19800
C1786       C  0.28604616  0.79132125  0.49231042    -0.12100
C1787       C  0.28587411  0.81333798  0.51502098     0.13600
C1788       C  0.30659467  0.83681062  0.51356792    -0.22500
C1789       C  0.34990333  0.81754487  0.44240085    -0.05600
H1790       H  0.30669586  0.77645915  0.45143018     0.15100
C1791       C  0.26595287  0.81165836  0.54213163    -0.15800
H1792       H  0.30726698  0.85331799  0.53131638     0.09400
H1793       H  0.45042767  0.85664717  0.50916624     0.07300
H1794       H  0.42774354  0.83756704  0.53602470     0.08500
H1795       H  0.43724422  0.87602325  0.54234706     0.07500
H1796       H  0.30402731  0.89884741  0.48050716     0.02400
H1797       H  0.31633565  0.88243044  0.44565750     0.02900
H1798       H  0.32490780  0.92076990  0.45402672     0.06400
H1799       H  0.34634174  0.79910526  0.42615849     0.05400
H1800       H  0.37287501  0.81543753  0.45151659    -0.00400
H1801       H  0.34792167  0.83903724  0.43013744     0.01100
H1802       H  0.27976515  0.81280650  0.56274402     0.04800
H1803       H  0.25302992  0.79063609  0.54335521     0.06700
H1804       H  0.25013757  0.83078932  0.54194983     0.07600
C1805       C  0.68184949  0.81810953  0.53499874    -0.22100
C1806       C  0.68046942  0.83863876  0.51144081     0.09900
C1807       C  0.70270872  0.83832027  0.48904637     0.10300
C1808       C  0.72406792  0.81529478  0.48900291    -0.17000
C1809       C  0.72338239  0.79278010  0.51085274    -0.27400
C1810       C  0.70314040  0.79520716  0.53508046     0.18600
C1811       C  0.65413849  0.85851898  0.50941877     0.12600
C1812       C  0.70306516  0.86152451  0.46461923    -0.11700
H1813       H  0.73968168  0.81352147  0.47055832     0.12900
C1814       C  0.70269937  0.77340389  0.56082913    -0.22600
H1815       H  0.66526492  0.81905752  0.55265455     0.08500
C1816       C  0.62871037  0.85025608  0.49264608     0.04900
C1817       C  0.60448444  0.87014022  0.49050206    -0.19800
C1818       C  0.60513924  0.89801561  0.50490819    -0.12100
C1819       C  0.62988171  0.90515594  0.52357635     0.13600
C1820       C  0.65416052  0.88538606  0.52529668    -0.22500
C1821       C  0.62723936  0.82042741  0.47705646    -0.05600
H1822       H  0.58532869  0.86422292  0.47691200     0.15100
C1823       C  0.63059071  0.93301144  0.54261227    -0.15800
H1824       H  0.67336856  0.89093214  0.53898729     0.09400
H1825       H  0.68088721  0.76163014  0.56138186     0.07300
H1826       H  0.70572837  0.78574923  0.58216412     0.08500
H1827       H  0.72068349  0.75644636  0.55948587     0.07500
H1828       H  0.70534670  0.88409962  0.47467150     0.02400
H1829       H  0.68199433  0.86055387  0.45157813     0.02900
H1830       H  0.72199267  0.85805666  0.44893678     0.06400
H1831       H  0.60570874  0.81734838  0.46511147     0.05400
H1832       H  0.62953839  0.80216187  0.49374657    -0.00400
H1833       H  0.64555864  0.81859472  0.46044212     0.01100
H1834       H  0.65022418  0.93332710  0.55782115     0.04800
H1835       H  0.61019211  0.93413636  0.55669937     0.06700
H1836       H  0.63213872  0.95317466  0.52829569     0.07600
C1837       C  0.65450121  0.10499785  0.46395312    -0.22100
C1838       C  0.65307945  0.13262171  0.47836014     0.09900
C1839       C  0.62709178  0.14076058  0.49427870     0.10300
C1840       C  0.60348630  0.12023382  0.49666964    -0.17000
C1841       C  0.60516318  0.09201421  0.48304052    -0.27400
C1842       C  0.63084702  0.08462932  0.46577091     0.18600
C1843       C  0.67801697  0.15372878  0.47409469     0.12600
C1844       C  0.62400036  0.17135298  0.50803305    -0.11700
H1845       H  0.58373821  0.12619310  0.50933142     0.12900
C1846       C  0.63324064  0.05597379  0.44806356    -0.22600
H1847       H  0.67418002  0.09954097  0.45090678     0.08500
C1848       C  0.70062546  0.15755129  0.49577094     0.04900
C1849       C  0.72193831  0.18019214  0.49169060    -0.19800
C1850       C  0.72113911  0.19855362  0.46623903    -0.12100
C1851       C  0.70015096  0.19266352  0.44329531     0.13600
C1852       C  0.67869052  0.17044840  0.44766793    -0.22500
C1853       C  0.70195654  0.13808265  0.52324864    -0.05600
H1854       H  0.73812482  0.18465717  0.50916249     0.15100
C1855       C  0.69949129  0.20958252  0.41408203    -0.15800
H1856       H  0.66187522  0.16660076  0.43062199     0.09400
H1857       H  0.63498586  0.03653636  0.46336501     0.07300
H1858       H  0.65342462  0.05563631  0.43361186     0.08500
H1859       H  0.61346661  0.05350525  0.43326586     0.07500
H1860       H  0.62580761  0.18867366  0.49031305     0.02400
H1861       H  0.64184637  0.17503182  0.52484048     0.02900
H1862       H  0.60211100  0.17416620  0.51937549     0.06400
H1863       H  0.72117375  0.14401813  0.53780397     0.05400
H1864       H  0.70444111  0.11433809  0.51647129    -0.00400
H1865       H  0.68120738  0.14056352  0.53655704     0.01100
H1866       H  0.70144888  0.19355138  0.39522085     0.04800
H1867       H  0.71802034  0.22581430  0.41180621     0.06700
H1868       H  0.67801532  0.22183291  0.41201568     0.07600
C1869       C  0.32899225  0.17614549  0.52237758    -0.22100
C1870       C  0.32685214  0.15301950  0.50146707     0.09900
C1871       C  0.30219917  0.15200586  0.48177687     0.10300
C1872       C  0.28157508  0.17576457  0.48168347    -0.17000
C1873       C  0.28519484  0.20024221  0.50098148    -0.27400
C1874       C  0.30834778  0.19962496  0.52261931     0.18600
C1875       C  0.35193324  0.13148886  0.49955652     0.12600
C1876       C  0.29829277  0.12639990  0.46030816    -0.11700
H1877       H  0.26379943  0.17614245  0.46522062     0.12900
C1878       C  0.31228130  0.22359173  0.54602180    -0.22600
H1879       H  0.34753393  0.17638978  0.53800548     0.08500
C1880       C  0.37693558  0.13727784  0.48119538     0.04900
C1881       C  0.40129589  0.11747302  0.48153505    -0.19800
C1882       C  0.40134994  0.09209953  0.49999837    -0.12100
C1883       C  0.37661130  0.08704645  0.51935814     0.13600
C1884       C  0.35205571  0.10654650  0.51841845    -0.22500
C1885       C  0.37785836  0.16440136  0.46122323    -0.05600
H1886       H  0.42010010  0.12145786  0.46679720     0.15100
C1887       C  0.37564568  0.06225302  0.54225940    -0.15800
H1888       H  0.33319339  0.10276287  0.53316442     0.09400
H1889       H  0.33396003  0.23512179  0.54255381     0.07300
H1890       H  0.31223379  0.21317842  0.56858811     0.08500
H1891       H  0.29419465  0.24049696  0.54575688     0.07500
H1892       H  0.29649101  0.10513890  0.47301531     0.02400
H1893       H  0.31774951  0.12508941  0.44499157     0.02900
H1894       H  0.27778431  0.12901557  0.44655301     0.06400
H1895       H  0.39907212  0.16568160  0.44841758     0.05400
H1896       H  0.37586169  0.18499021  0.47493686    -0.00400
H1897       H  0.35912650  0.16358411  0.44497612     0.01100
H1898       H  0.37043286  0.07175050  0.56462295     0.04800
H1899       H  0.39713261  0.05030157  0.54464459     0.06700
H1900       H  0.35786833  0.04607317  0.53619110     0.07600
C1901       C  0.81935392  0.01733223  0.66965485    -0.22100
C1902       C  0.82779551  0.99163372  0.65393933     0.09900
C1903       C  0.81325948  0.96422203  0.65961856     0.10300
C1904       C  0.79147939  0.96287509  0.68211259    -0.17000
C1905       C  0.78398990  0.98833496  0.69875379    -0.27400
C1906       C  0.79765718  0.01602045  0.69212199     0.18600
C1907       C  0.85346326  0.99350707  0.63334562     0.12600
C1908       C  0.82119166  0.93635730  0.64241945    -0.11700
H1909       H  0.78139889  0.94159366  0.68779709     0.12900
C1910       C  0.79101396  0.04423557  0.70929982    -0.22600
H1911       H  0.83069309  0.03829264  0.66524003     0.08500
C1912       C  0.85110574  0.00753199  0.60525822     0.04900
C1913       C  0.87603827  0.00808378  0.58644247    -0.19800
C1914       C  0.90335419  0.99491904  0.59498141    -0.12100
C1915       C  0.90585521  0.98166954  0.62368038     0.13600
C1916       C  0.88079640  0.98123292  0.64248913    -0.22500
C1917       C  0.82219677  0.02137503  0.59487546    -0.05600
H1918       H  0.87404187  0.01875177  0.56473660     0.15100
C1919       C  0.93425832  0.96704324  0.63436789    -0.15800
H1920       H  0.88235039  0.97094646  0.66441502     0.09400
H1921       H  0.78297238  0.06174399  0.69361863     0.07300
H1922       H  0.81170467  0.05224049  0.72040500     0.08500
H1923       H  0.77372364  0.04113525  0.72672838     0.07500
H1924       H  0.84487530  0.93027107  0.64647052     0.02400
H1925       H  0.81777037  0.94028127  0.61811738     0.02900
H1926       H  0.80714034  0.91706514  0.64922235     0.06400
H1927       H  0.82410830  0.03071013  0.57190677     0.05400
H1928       H  0.81574517  0.03988036  0.61008030    -0.00400
H1929       H  0.80428964  0.00422183  0.59476904     0.01100
H1930       H  0.93147228  0.95652135  0.65671788     0.04800
H1931       H  0.95226041  0.98397059  0.63635413     0.06700
H1932       H  0.94100459  0.94928213  0.61840691     0.07600
C1933       C  0.15589481  0.02050602  0.60392336    -0.22100
C1934       C  0.15438831  0.00552080  0.63125458     0.09900
C1935       C  0.12837546  0.98957401  0.63912904     0.10300
C1936       C  0.10473188  0.98781573  0.61859685    -0.17000
C1937       C  0.10636209  0.00225439  0.59074751    -0.27400
C1938       C  0.13215697  0.01943452  0.58360506     0.18600
C1939       C  0.17937504  0.00910165  0.65233736     0.12600
C1940       C  0.12528720  0.97516161  0.66946136    -0.11700
H1941       H  0.08495904  0.97505564  0.62427435     0.12900
C1942       C  0.13456554  0.03791924  0.55539466    -0.22600
H1943       H  0.17567803  0.03347635  0.59870942     0.08500
C1944       C  0.20177964  0.98715528  0.65557066     0.04900
C1945       C  0.22315672  0.99049145  0.67827448    -0.19800
C1946       C  0.22281919  0.01568986  0.69694702    -0.12100
C1947       C  0.20235289  0.03909594  0.69132528     0.13600
C1948       C  0.18048569  0.03524918  0.66940478    -0.22500
C1949       C  0.20285683  0.96024999  0.63535055    -0.05600
H1950       H  0.23902139  0.97267426  0.68250198     0.15100
C1951       C  0.20288611  0.06827225  0.70819322    -0.15800
H1952       H  0.16388139  0.05256812  0.66589004     0.09400
H1953       H  0.13598294  0.02325915  0.53544390     0.07300
H1954       H  0.15491380  0.05211899  0.55534566     0.08500
H1955       H  0.11496820  0.05302371  0.55353307     0.07500
H1956       H  0.12722013  0.99245963  0.68716557     0.02400
H1957       H  0.14305435  0.95819654  0.67276619     0.02900
H1958       H  0.10334532  0.96389677  0.67207271     0.06400
H1959       H  0.22200347  0.94542431  0.64084598     0.05400
H1960       H  0.20531296  0.96768396  0.61176470    -0.00400
H1961       H  0.18202438  0.94703733  0.63750512     0.01100
H1962       H  0.20466592  0.08706135  0.69203894     0.04800
H1963       H  0.22215652  0.07008609  0.72366961     0.06700
H1964       H  0.18192578  0.07080535  0.72121288     0.07600
C1965       C  0.12492334  0.97538482  0.35060613    -0.22100
C1966       C  0.15283261  0.98648041  0.35946406     0.09900
C1967       C  0.15576198  0.00149441  0.38693777     0.10300
C1968       C  0.13064101  0.00478012  0.40521907    -0.17000
C1969       C  0.10249956  0.99348721  0.39672305    -0.27400
C1970       C  0.09959949  0.97874127  0.36881031     0.18600
C1971       C  0.17811889  0.98386336  0.33848844     0.12600
C1972       C  0.18543924  0.01367825  0.39715603    -0.11700
H1973       H  0.13310111  0.01624174  0.42644671     0.12900
C1974       C  0.07029110  0.96607682  0.35813126    -0.22600
H1975       H  0.12297274  0.96425896  0.32914338     0.08500
C1976       C  0.19254006  0.95631640  0.33320582     0.04900
C1977       C  0.21343607  0.95427737  0.30993154    -0.19800
C1978       C  0.22021966  0.97923285  0.29224399    -0.12100
C1979       C  0.20687996  0.00715837  0.29859932     0.13600
C1980       C  0.18604451  0.00911379  0.32179269    -0.22500
C1981       C  0.18550312  0.92909650  0.35174997    -0.05600
H1982       H  0.22352538  0.93288598  0.30466056     0.15100
C1983       C  0.21282978  0.03494236  0.28044702    -0.15800
H1984       H  0.17486587  0.03021426  0.32601208     0.09400
H1985       H  0.06134247  0.95014361  0.37486775     0.07300
H1986       H  0.07273526  0.95393370  0.33659217     0.08500
H1987       H  0.05399465  0.98443762  0.35456948     0.07500
H1988       H  0.19342226  0.03094638  0.38122470     0.02400
H1989       H  0.20206189  0.99528426  0.39834417     0.02900
H1990       H  0.18388971  0.02414998  0.41964097     0.06400
H1991       H  0.19923370  0.90955754  0.34494948     0.05400
H1992       H  0.16163615  0.92298363  0.34912191    -0.00400
H1993       H  0.19014663  0.93386170  0.37568826     0.01100
H1994       H  0.19162454  0.04301522  0.27038218     0.04800
H1995       H  0.22894478  0.03127600  0.26205742     0.06700
H1996       H  0.22194707  0.05265076  0.29525374     0.07600
C1997       C  0.87556283  0.02102391  0.35421258    -0.22100
C1998       C  0.84959308  0.00465511  0.36034472     0.09900
C1999       C  0.84831444  0.98655538  0.38611045     0.10300
C2000       C  0.87325831  0.98504964  0.40511267    -0.17000
C2001       C  0.89955777  0.00124025  0.39899705    -0.27400
C2002       C  0.90047747  0.01980274  0.37329545     0.18600
C2003       C  0.82445710  0.00642199  0.33882437     0.12600
C2004       C  0.82050388  0.96922653  0.39374516    -0.11700
H2005       H  0.87220021  0.97106433  0.42490950     0.12900
C2006       C  0.92694462  0.03941013  0.36646292    -0.22600
H2007       H  0.87621788  0.03498175  0.33437329     0.08500
C2008       C  0.80610679  0.03203349  0.33689532     0.04900
C2009       C  0.78574162  0.03463412  0.31313207    -0.19800
C2010       C  0.78313582  0.01202171  0.29160763    -0.12100
C2011       C  0.80020307  0.98556682  0.29464420     0.13600
C2012       C  0.82072262  0.98314001  0.31821399    -0.22500
C2013       C  0.80856854  0.05688591  0.35946769    -0.05600
H2014       H  0.77313218  0.05512349  0.31039688     0.15100
C2015       C  0.79814347  0.96000332  0.27275942    -0.15800
H2016       H  0.83475661  0.96343557  0.31984167     0.09400
H2017       H  0.93156856  0.05419980  0.38586918     0.07300
H2018       H  0.92289420  0.05387673  0.34664827     0.08500
H2019       H  0.94683677  0.02546167  0.36155971     0.07500
H2020       H  0.81556009  0.95287136  0.37575223     0.02400
H2021       H  0.80134644  0.98482801  0.39609017     0.02900
H2022       H  0.82299089  0.95672239  0.41509345     0.06400
H2023       H  0.79210917  0.07495138  0.35505108     0.05400
H2024       H  0.83124912  0.06682740  0.35871228    -0.00400
H2025       H  0.80432342  0.04791725  0.38224843     0.01100
H2026       H  0.82006879  0.95679698  0.26160835     0.04800
H2027       H  0.78098932  0.96360589  0.25523818     0.06700
H2028       H  0.79220575  0.93920162  0.28494586     0.07600
C2029       C  0.12083134  0.84524917  0.48504602    -0.22100
C2030       C  0.14993736  0.85340958  0.49292952     0.09900
C2031       C  0.15594175  0.88329138  0.50086372     0.10300
C2032       C  0.13257002  0.90434815  0.50087627    -0.17000
C2033       C  0.10299408  0.89631468  0.49347520    -0.27400
C2034       C  0.09718914  0.86594863  0.48559169     0.18600
C2035       C  0.17337060  0.82979933  0.49381658     0.12600
C2036       C  0.18692893  0.89280893  0.50986025    -0.11700
H2037       H  0.13750031  0.92719666  0.50719410     0.12900
C2038       C  0.06639782  0.85448914  0.47799176    -0.22600
H2039       H  0.11651528  0.82216754  0.47904987     0.08500
C2040       C  0.17435707  0.80857365  0.51719849     0.04900
C2041       C  0.19589912  0.78574747  0.51652241    -0.19800
C2042       C  0.21656537  0.78349810  0.49302538    -0.12100
C2043       C  0.21528166  0.80460303  0.46934313     0.13600
C2044       C  0.19397377  0.82769726  0.47029008    -0.22500
C2045       C  0.15291092  0.81027653  0.54310086    -0.05600
H2046       H  0.19699126  0.76971989  0.53467535     0.15100
C2047       C  0.23489462  0.80265754  0.44205346    -0.15800
H2048       H  0.19285841  0.84371075  0.45209041     0.09400
H2049       H  0.05186572  0.85561796  0.49791453     0.07300
H2050       H  0.06680708  0.83081021  0.47053221     0.08500
H2051       H  0.05620967  0.86786147  0.45986250     0.07500
H2052       H  0.20266352  0.88899992  0.49105687     0.02400
H2053       H  0.19436746  0.87963238  0.52957691     0.02900
H2054       H  0.18778570  0.91688400  0.51586690     0.06400
H2055       H  0.15728126  0.79248101  0.55988885     0.05400
H2056       H  0.12964955  0.80757810  0.53497817    -0.00400
H2057       H  0.15514174  0.83226834  0.55439042     0.01100
H2058       H  0.22075044  0.80223588  0.42164078     0.04800
H2059       H  0.24872709  0.78215633  0.44162982     0.06700
H2060       H  0.24975019  0.82250261  0.44106545     0.07600
C2061       C  0.88815384  0.84241604  0.50357655    -0.22100
C2062       C  0.85943126  0.84944318  0.49336875     0.09900
C2063       C  0.85316363  0.87888100  0.48392915     0.10300
C2064       C  0.87595189  0.90053772  0.48441570    -0.17000
C2065       C  0.90502273  0.89372935  0.49447588    -0.27400
C2066       C  0.91102848  0.86400282  0.50437538     0.18600
C2067       C  0.83598613  0.82584336  0.49389880     0.12600
C2068       C  0.82221898  0.88759930  0.47391310    -0.11700
H2069       H  0.87091660  0.92300053  0.47683862     0.12900
C2070       C  0.94102542  0.85468438  0.51670055    -0.22600
H2071       H  0.89260851  0.81981469  0.51115198     0.08500
C2072       C  0.82927206  0.80840205  0.46841969     0.04900
C2073       C  0.80654186  0.78673086  0.47008488    -0.19800
C2074       C  0.79099889  0.78146799  0.49687283    -0.12100
C2075       C  0.79904818  0.79774461  0.52278645     0.13600
C2076       C  0.82089538  0.82018634  0.52079629    -0.22500
C2077       C  0.84648995  0.81225311  0.43972648    -0.05600
H2078       H  0.80079550  0.77375916  0.45044291     0.15100
C2079       C  0.78613987  0.79099355  0.55312516    -0.15800
H2080       H  0.82672985  0.83292171  0.54059053     0.09400
H2081       H  0.95826646  0.85583759  0.49890958     0.07300
H2082       H  0.94078740  0.83130222  0.52509411     0.08500
H2083       H  0.94732029  0.86935255  0.53572571     0.07500
H2084       H  0.80613440  0.88383178  0.49243689     0.02400
H2085       H  0.81538611  0.87398550  0.45434746     0.02900
H2086       H  0.82103075  0.91152396  0.46734495     0.06400
H2087       H  0.83856448  0.79669357  0.42207011     0.05400
H2088       H  0.87051941  0.80767092  0.44382822    -0.00400
H2089       H  0.84399414  0.83541317  0.43122336     0.01100
H2090       H  0.80454933  0.78653908  0.56918506     0.04800
H2091       H  0.77173564  0.77092477  0.55307858     0.06700
H2092       H  0.77297838  0.81044915  0.56112246     0.07600
C2093       C  0.88397995  0.14426270  0.48010393    -0.22100
C2094       C  0.85603954  0.13867742  0.49293669     0.09900
C2095       C  0.85077180  0.11093545  0.50703263     0.10300
C2096       C  0.87389372  0.08957227  0.50844378    -0.17000
C2097       C  0.90213348  0.09507891  0.49563057    -0.27400
C2098       C  0.90695891  0.12285729  0.48087498     0.18600
C2099       C  0.83218280  0.16154407  0.48907255     0.12600
C2100       C  0.82060737  0.10373399  0.52006649    -0.11700
H2101       H  0.86980440  0.06838816  0.51949548     0.12900
C2102       C  0.93556249  0.12976435  0.46438434    -0.22600
H2103       H  0.88756418  0.16539628  0.46876635     0.08500
C2104       C  0.82793463  0.18500703  0.50976403     0.04900
C2105       C  0.80638890  0.20717544  0.50381376    -0.19800
C2106       C  0.78963529  0.20700194  0.47719778    -0.12100
C2107       C  0.79476355  0.18395076  0.45605560     0.13600
C2108       C  0.81538618  0.16120510  0.46262242    -0.22500
C2109       C  0.84646245  0.18688583  0.53782180    -0.05600
H2110       H  0.80261045  0.22483255  0.51994740     0.15100
C2111       C  0.78026303  0.18345006  0.42566576    -0.15800
H2112       H  0.81931189  0.14364616  0.44636445     0.09400
H2113       H  0.95443915  0.13161767  0.48035562     0.07300
H2114       H  0.93421510  0.15131938  0.45209788     0.08500
H2115       H  0.94021332  0.11196327  0.44770070     0.07500
H2116       H  0.80334781  0.10484794  0.50224764     0.02400
H2117       H  0.81497214  0.12006346  0.53787639     0.02900
H2118       H  0.82007123  0.08096546  0.52999536     0.06400
H2119       H  0.84044299  0.20672241  0.55149816     0.05400
H2120       H  0.87046448  0.18863413  0.53185247    -0.00400
H2121       H  0.84298680  0.16658591  0.55166896     0.01100
H2122       H  0.79777567  0.18203901  0.40813145     0.04800
H2123       H  0.76713516  0.20384016  0.42092777     0.06700
H2124       H  0.76547055  0.16362367  0.42383685     0.07600
C2125       C  0.19016904  0.16908029  0.51976277    -0.22100
C2126       C  0.17145660  0.16454127  0.49499115     0.09900
C2127       C  0.17440089  0.18329723  0.46972986     0.10300
C2128       C  0.19685256  0.20525968  0.46930868    -0.17000
C2129       C  0.21588418  0.20962478  0.49391843    -0.27400
C2130       C  0.21183659  0.19184808  0.51983334     0.18600
C2131       C  0.14821416  0.14075089  0.49634460     0.12600
C2132       C  0.15353132  0.18043626  0.44344210    -0.11700
H2133       H  0.19964287  0.21920514  0.44967268     0.12900
C2134       C  0.22887286  0.19723855  0.54835634    -0.22600
H2135       H  0.18733586  0.15522720  0.53947850     0.08500
C2136       C  0.15328930  0.11187520  0.48476636     0.04900
C2137       C  0.13025172  0.09047901  0.48567055    -0.19800
C2138       C  0.10205833  0.09700999  0.49814403    -0.12100
C2139       C  0.09761027  0.12587024  0.51083597     0.13600
C2140       C  0.12062511  0.14728342  0.50951325    -0.22500
C2141       C  0.18314666  0.10360243  0.47162702    -0.05600
H2142       H  0.13432560  0.06853055  0.47627292     0.15100
C2143       C  0.06937988  0.13409683  0.52711232    -0.15800
H2144       H  0.11713623  0.16936683  0.51887626     0.09400
H2145       H  0.24307945  0.17753335  0.55347025     0.07300
H2146       H  0.21289269  0.20068979  0.56703628     0.08500
H2147       H  0.24311683  0.21741010  0.54728036     0.07500
H2148       H  0.13020797  0.18436044  0.45090817     0.02400
H2149       H  0.15521175  0.15772021  0.43364785     0.02900
H2150       H  0.15879763  0.19693348  0.42562124     0.06400
H2151       H  0.18353814  0.08007719  0.46369914     0.05400
H2152       H  0.20082887  0.10625693  0.48884900    -0.00400
H2153       H  0.18831774  0.11830969  0.45231414     0.01100
H2154       H  0.07085836  0.15657840  0.53755304     0.04800
H2155       H  0.06546974  0.11759392  0.54523500     0.06700
H2156       H  0.05018556  0.13455211  0.51141962     0.07600
C2157       C  0.97367144  0.60976949  0.14846463    -0.22100
C2158       C  0.98662177  0.63788381  0.14432338     0.09900
C2159       C  0.00144011  0.64442063  0.11720138     0.10300
C2160       C  0.00318973  0.62241007  0.09491184    -0.17000
C2161       C  0.99037819  0.59404248  0.09897488    -0.27400
C2162       C  0.97487178  0.58788486  0.12608029     0.18600
C2163       C  0.98374396  0.66026367  0.16854125     0.12600
C2164       C  0.01492357  0.67474192  0.11144847    -0.11700
H2165       H  0.01487578  0.62734724  0.07425926     0.12900
C2166       C  0.95836680  0.55898289  0.13139594    -0.22600
H2167       H  0.96229204  0.60505454  0.16935921     0.08500
C2168       C  0.95593825  0.67345380  0.17552016     0.04900
C2169       C  0.95452378  0.69511872  0.19807166    -0.19800
C2170       C  0.98029294  0.70449555  0.21315390    -0.12100
C2171       C  0.00822830  0.69167105  0.20581798     0.13600
C2172       C  0.00937869  0.66891321  0.18432413    -0.22500
C2173       C  0.92801390  0.66580406  0.15830972    -0.05600
H2174       H  0.93335579  0.70574655  0.20317090     0.15100
C2175       C  0.03743888  0.70279817  0.21834296    -0.15800
H2176       H  0.03069045  0.65878958  0.17882332     0.09400
H2177       H  0.94542515  0.55944854  0.15260849     0.07300
H2178       H  0.97431143  0.54007357  0.13308639     0.08500
H2179       H  0.94231459  0.55504352  0.11286519     0.07500
H2180       H  0.03311714  0.67917867  0.12768919     0.02400
H2181       H  0.99748092  0.69225444  0.11364277     0.02900
H2182       H  0.02458628  0.67633456  0.08860834     0.06400
H2183       H  0.90860659  0.67933336  0.16582560     0.05400
H2184       H  0.92226153  0.64191788  0.16154873    -0.00400
H2185       H  0.93155262  0.67025132  0.13411771     0.01100
H2186       H  0.04848721  0.68462688  0.23116887     0.04800
H2187       H  0.03486632  0.72246363  0.23310648     0.06700
H2188       H  0.05228455  0.70964662  0.19964954     0.07600
C2189       C  0.98562604  0.79918845  0.34465844    -0.22100
C2190       C  0.00523309  0.82264017  0.33767422     0.09900
C2191       C  0.02192620  0.82150761  0.31089991     0.10300
C2192       C  0.01678982  0.79811649  0.29082761    -0.17000
C2193       C  0.99422793  0.77696582  0.29594540    -0.27400
C2194       C  0.97915115  0.77678795  0.32368456     0.18600
C2195       C  0.00561169  0.84939370  0.35716111     0.12600
C2196       C  0.04326351  0.84607485  0.30208702    -0.11700
H2197       H  0.02836740  0.79803280  0.26950664     0.12900
C2198       C  0.95499340  0.75452158  0.33064890    -0.22600
H2199       H  0.97378586  0.79963634  0.36580924     0.08500
C2200       C  0.97986930  0.86747278  0.36075981     0.04900
C2201       C  0.98113636  0.89225890  0.37984244    -0.19800
C2202       C  0.00756681  0.89970484  0.39474647    -0.12100
C2203       C  0.03380930  0.88292743  0.38956286     0.13600
C2204       C  0.03227202  0.85748629  0.37144078    -0.22500
C2205       C  0.95114740  0.86106347  0.34429971    -0.05600
H2206       H  0.96122145  0.90551332  0.38373086     0.15100
C2207       C  0.06392732  0.89179137  0.40172950    -0.15800
H2208       H  0.05204853  0.84382580  0.36851278     0.09400
H2209       H  0.94366619  0.75967436  0.35214891     0.07300
H2210       H  0.96494209  0.73199802  0.33291969     0.08500
H2211       H  0.93782288  0.75463913  0.31273038     0.07500
H2212       H  0.06229738  0.84697962  0.31791007     0.02400
H2213       H  0.03146099  0.86791266  0.30196743     0.02900
H2214       H  0.05267891  0.84241432  0.27938579     0.06400
H2215       H  0.93412658  0.87867827  0.34835278     0.05400
H2216       H  0.94145870  0.83956576  0.35188182    -0.00400
H2217       H  0.95545290  0.86009618  0.31985066     0.01100
H2218       H  0.07425281  0.87267256  0.41365213     0.04800
H2219       H  0.06284276  0.91121388  0.41710506     0.06700
H2220       H  0.07884324  0.89772478  0.38279430     0.07600
C2221       C  0.95457630  0.32304282  0.81807923    -0.22100
C2222       C  0.98101888  0.33939508  0.82095690     0.09900
C2223       C  0.00508132  0.33392007  0.80134872     0.10300
C2224       C  0.00263070  0.31102115  0.78003132    -0.17000
C2225       C  0.97687003  0.29328646  0.77845848    -0.27400
C2226       C  0.95222693  0.29986284  0.79719544     0.18600
C2227       C  0.98377783  0.36055456  0.84613369     0.12600
C2228       C  0.03364796  0.35151145  0.80375111    -0.11700
H2229       H  0.02162027  0.30559488  0.76600022     0.12900
C2230       C  0.92342413  0.28243758  0.79636493    -0.22600
H2231       H  0.93607513  0.32761663  0.83305667     0.08500
C2232       C  0.97425278  0.39036567  0.84360181     0.04900
C2233       C  0.97746623  0.40951438  0.86818933    -0.19800
C2234       C  0.99027178  0.39961200  0.89533212    -0.12100
C2235       C  0.99998309  0.36950203  0.89759693     0.13600
C2236       C  0.99639298  0.35037564  0.87295517    -0.22500
C2237       C  0.96101229  0.40194259  0.81484907    -0.05600
H2238       H  0.96980823  0.43240740  0.86610665     0.15100
C2239       C  0.01505235  0.35743547  0.92527301    -0.15800
H2240       H  0.00374526  0.32732419  0.87443213     0.09400
H2241       H  0.90462123  0.29787466  0.79143771     0.07300
H2242       H  0.91954254  0.27176357  0.81846419     0.08500
H2243       H  0.92324598  0.26469334  0.77911571     0.07500
H2244       H  0.04357293  0.34844046  0.82631983     0.20400
H2245       H  0.02898239  0.37561367  0.80011083     0.02900
H2246       H  0.05034184  0.34422856  0.78688567     0.06400
H2247       H  0.95626926  0.42621739  0.81615561     0.05400
H2248       H  0.93987732  0.38995734  0.80989496    -0.00400
H2249       H  0.97692762  0.39842981  0.79614351     0.01100
H2250       H  0.99919676  0.35740872  0.94434965     0.04800
H2251       H  0.03489286  0.37127003  0.93078258     0.06700
H2252       H  0.02279592  0.33405720  0.92211673     0.07600
C2253       C  0.02126534  0.17783531  0.67347592    -0.22100
C2254       C  0.99581591  0.17012536  0.65698722     0.09900
C2255       C  0.96903312  0.18626212  0.66101397     0.10300
C2256       C  0.96787168  0.20884908  0.68275161    -0.17000
C2257       C  0.99279590  0.21517962  0.70061085    -0.27400
C2258       C  0.02006445  0.20019496  0.69534505     0.18600
C2259       C  0.99765179  0.14476145  0.63591921     0.12600
C2260       C  0.94153802  0.17897388  0.64303192    -0.11700
H2261       H  0.94693117  0.22017854  0.68723619     0.12900
C2262       C  0.04793886  0.20664364  0.71311347    -0.22600
H2263       H  0.04193227  0.16570851  0.66987652     0.08500
C2264       C  0.00962512  0.14852090  0.60712639     0.04900
C2265       C  0.01069026  0.12401576  0.58775690    -0.19800
C2266       C  0.00040099  0.09551193  0.59642440    -0.12100
C2267       C  0.98795025  0.09194816  0.62540540     0.13600
C2268       C  0.98696070  0.11666875  0.64483690    -0.22500
C2269       C  0.02074571  0.17856288  0.59665828    -0.05600
H2270       H  0.01926130  0.12741588  0.56542780     0.15100
C2271       C  0.97439415  0.06283161  0.63562760    -0.15800
H2272       H  0.97748583  0.11423473  0.66702760     0.09400
H2273       H  0.06620735  0.21314425  0.69762803     0.07300
H2274       H  0.05476830  0.18629704  0.72561334     0.08500
H2275       H  0.04492396  0.22512118  0.72936755     0.07500
H2276       H  0.93467287  0.15551999  0.64732618     0.02400
H2277       H  0.94632688  0.18179330  0.61881766     0.02900
H2278       H  0.92252572  0.19379376  0.64894096     0.06400
H2279       H  0.02911945  0.17770709  0.57328503     0.05400
H2280       H  0.03931986  0.18617593  0.61123101    -0.00400
H2281       H  0.00231025  0.19514732  0.59760927     0.01100
H2282       H  0.99187055  0.04530132  0.63712336     0.04800
H2283       H  0.95669153  0.05576487  0.61971252     0.06700
H2284       H  0.96401440  0.06487846  0.65810642     0.07600
C2285       C  0.96119615  0.67281994  0.82040430    -0.22100
C2286       C  0.98550773  0.65321243  0.82073233     0.09900
C2287       C  0.00649196  0.65387237  0.79718475     0.10300
C2288       C  0.00453967  0.67662104  0.77559717    -0.17000
C2289       C  0.98165598  0.69801916  0.77691269    -0.27400
C2290       C  0.95873457  0.69496797  0.79848920     0.18600
C2291       C  0.98842762  0.63260506  0.84635366     0.12600
C2292       C  0.03100704  0.63090161  0.79511873    -0.11700
H2293       H  0.02194237  0.67880200  0.75889678     0.12900
C2294       C  0.93166175  0.71500640  0.79934278    -0.22600
H2295       H  0.94443658  0.67133159  0.83786218     0.08500
C2296       C  0.00673375  0.63948355  0.87117415     0.04900
C2297       C  0.00777975  0.61966977  0.89554966    -0.19800
C2298       C  0.99060439  0.59347083  0.89567929    -0.12100
C2299       C  0.97117774  0.58744086  0.87126113     0.13600
C2300       C  0.97052534  0.60707850  0.84687442    -0.22500
C2301       C  0.02459219  0.66800471  0.87220141    -0.05600
H2302       H  0.02233662  0.62441289  0.91434519     0.15100
C2303       C  0.95022518  0.56098286  0.87106510    -0.15800
H2304       H  0.95581201  0.60265773  0.82811215     0.09400
H2305       H  0.93133955  0.72770408  0.82067937     0.07300
H2306       H  0.91115887  0.70112022  0.79794351     0.08500
H2307       H  0.93095204  0.73112157  0.78051604     0.07500
H2308       H  0.02102785  0.60825480  0.79337168     0.02400
H2309       H  0.04541315  0.63180064  0.81528337     0.02900
H2310       H  0.04531255  0.63458913  0.77515079     0.06400
H2311       H  0.03725940  0.67011963  0.89347297     0.05400
H2312       H  0.00934639  0.68750172  0.87032524    -0.00400
H2313       H  0.04081248  0.66863203  0.85347243     0.01100
H2314       H  0.93650563  0.56092397  0.89176775     0.04800
H2315       H  0.96298759  0.53980714  0.86936593     0.06700
H2316       H  0.93470626  0.56167674  0.85167236     0.07600
C2317       C  0.02728981  0.81516434  0.67243320    -0.22100
C2318       C  0.00167004  0.82074034  0.65538071     0.09900
C2319       C  0.97636110  0.80225924  0.65862063     0.10300
C2320       C  0.97660213  0.77961272  0.68038369    -0.17000
C2321       C  0.00149125  0.77544994  0.69896100    -0.27400
C2322       C  0.02750788  0.79272686  0.69427328     0.18600
C2323       C  0.00208612  0.84589339  0.63400329     0.12600
C2324       C  0.94887190  0.80712625  0.63980075    -0.11700
H2325       H  0.95659885  0.76655433  0.68434966     0.12900
C2326       C  0.05553784  0.78850653  0.71247818    -0.22600
H2327       H  0.04694373  0.82895887  0.66924327     0.08500
C2328       C  0.99269226  0.87485084  0.64215863     0.04900
C2329       C  0.99399411  0.89797436  0.62094322    -0.19800
C2330       C  0.00426079  0.89276670  0.59164344    -0.12100
C2331       C  0.01414805  0.86347745  0.58390391     0.13600
C2332       C  0.01289173  0.84058968  0.60525376    -0.22500
C2333       C  0.98137394  0.88132264  0.67323051    -0.05600
H2334       H  0.98666097  0.92015344  0.62727888     0.15100
C2335       C  0.02697581  0.85588668  0.55368814    -0.15800
H2336       H  0.02038346  0.81825086  0.59953807     0.09400
H2337       H  0.06043829  0.80927949  0.72514758     0.07300
H2338       H  0.07453776  0.78365097  0.69727210     0.08500
H2339       H  0.05383149  0.76968989  0.72855585     0.07500
H2340       H  0.95455599  0.80444191  0.61577183     0.02400
H2341       H  0.93998476  0.82999032  0.64350302     0.02900
H2342       H  0.93097501  0.79088779  0.64541171     0.06400
H2343       H  0.97483203  0.90513952  0.67584812     0.05400
H2344       H  0.99908925  0.87625669  0.68986806    -0.00400
H2345       H  0.96150612  0.86732824  0.67807691     0.01100
H2346       H  0.03565088  0.83262928  0.55280594     0.04800
H2347       H  0.04588993  0.87112078  0.54866841     0.06700
H2348       H  0.00947375  0.85767396  0.53619309     0.07600
C2349       C  0.14953779  0.61782999  0.49088401    -0.22100
C2350       C  0.13862084  0.64581444  0.49983103     0.09900
C2351       C  0.10840539  0.64901987  0.50753731     0.10300
C2352       C  0.08957984  0.62409788  0.50597263    -0.17000
C2353       C  0.10010557  0.59573897  0.49682006    -0.27400
C2354       C  0.13079602  0.59264328  0.48938178     0.18600
C2355       C  0.15956710  0.67129458  0.50147350     0.12600
C2356       C  0.09609504  0.67872778  0.51758272    -0.11700
H2357       H  0.06636817  0.62695797  0.51216668     0.12900
C2358       C  0.14411277  0.56332356  0.47944519    -0.22600
H2359       H  0.17297276  0.61574359  0.48515406     0.08500
C2360       C  0.17798036  0.67548279  0.52667488     0.04900
C2361       C  0.20027693  0.69739224  0.52573759    -0.19800
C2362       C  0.20499405  0.71472882  0.49994854    -0.12100
C2363       C  0.18542470  0.71159759  0.47527358     0.13600
C2364       C  0.16256358  0.69017519  0.47660992    -0.22500
C2365       C  0.17482314  0.65605054  0.55405023    -0.05600
H2366       H  0.21540306  0.69973463  0.54455046     0.15100
C2367       C  0.18919181  0.72863624  0.44644688    -0.15800
H2368       H  0.14811388  0.68693316  0.45740397     0.09400
H2369       H  0.14258649  0.54666548  0.49780488     0.07300
H2370       H  0.16810106  0.56560143  0.47354572     0.08500
H2371       H  0.13218931  0.55499962  0.45932101     0.07500
H2372       H  0.09912243  0.69558943  0.49959735     0.02400
H2373       H  0.10802346  0.68630136  0.53799525     0.02900
H2374       H  0.07189944  0.67737652  0.52288561     0.06400
H2375       H  0.19096823  0.66240378  0.57181513     0.05400
H2376       H  0.17892560  0.63231920  0.54806493    -0.00400
H2377       H  0.15193503  0.65828144  0.56331368     0.01100
H2378       H  0.19152912  0.71267320  0.42757495     0.04800
H2379       H  0.20916970  0.74306611  0.44629188     0.06700
H2380       H  0.16923005  0.74285420  0.44253789     0.07600
C2381       C  0.85451068  0.37349830  0.48214763    -0.22100
C2382       C  0.86397683  0.34549183  0.49251239     0.09900
C2383       C  0.89233608  0.34223668  0.50550701     0.10300
C2384       C  0.91083828  0.36727596  0.50789550    -0.17000
C2385       C  0.90193866  0.39548940  0.49692480    -0.27400
C2386       C  0.87313815  0.39863898  0.48401852     0.18600
C2387       C  0.84334974  0.32000670  0.49006171     0.12600
C2388       C  0.90313005  0.31226850  0.51651976    -0.11700
H2389       H  0.93268069  0.36457633  0.51801152     0.12900
C2390       C  0.86207956  0.42783686  0.47121399    -0.22600
H2391       H  0.83247121  0.37554007  0.47228988     0.08500
C2392       C  0.82130305  0.31508799  0.51194745     0.04900
C2393       C  0.79989263  0.29289502  0.50712034    -0.19800
C2394       C  0.79984791  0.27592573  0.48074056    -0.12100
C2395       C  0.82290873  0.27978628  0.45951258     0.13600
C2396       C  0.84464713  0.30174646  0.46461836    -0.22500
C2397       C  0.81971390  0.33405294  0.53976353    -0.05600
H2398       H  0.78193876  0.28999264  0.52314029     0.15100
C2399       C  0.82425992  0.26256404  0.43058770    -0.15800
H2400       H  0.86186297  0.30562973  0.44800275     0.09400
H2401       H  0.86030303  0.44482959  0.48921882     0.07300
H2402       H  0.83959766  0.42552799  0.46096138     0.08500
H2403       H  0.87756770  0.43576952  0.45350128     0.07500
H2404       H  0.90356702  0.29612810  0.49765649     0.02400
H2405       H  0.88792509  0.30376631  0.53418785     0.02900
H2406       H  0.92599995  0.31361627  0.52605721     0.06400
H2407       H  0.80101585  0.32717461  0.55456274     0.05400
H2408       H  0.81627422  0.35784076  0.53354473    -0.00400
H2409       H  0.84083585  0.33193239  0.55260155     0.01100
H2410       H  0.82336697  0.27835266  0.41141914     0.04800
H2411       H  0.80564567  0.24651914  0.42803924     0.06700
H2412       H  0.84553055  0.24983429  0.42956474     0.07600
C2413       C  0.11223064  0.34316297  0.47181426    -0.22100
C2414       C  0.13933057  0.34559666  0.48711888     0.09900
C2415       C  0.14645416  0.37234833  0.50224885     0.10300
C2416       C  0.12544789  0.39562078  0.50303796    -0.17000
C2417       C  0.09770046  0.39289230  0.48866451    -0.27400
C2418       C  0.09139089  0.36655580  0.47203533     0.18600
C2419       C  0.16088203  0.32067663  0.48502636     0.12600
C2420       C  0.17642841  0.37656774  0.51698542    -0.11700
H2421       H  0.13065830  0.41594607  0.51509911     0.12900
C2422       C  0.06353565  0.36330561  0.45325718    -0.22600
H2423       H  0.10755273  0.32289856  0.45936884     0.08500
C2424       C  0.16387638  0.29912276  0.50792232     0.04900
C2425       C  0.18694280  0.27787725  0.50605277    -0.19800
C2426       C  0.20639395  0.27748632  0.48142949    -0.12100
C2427       C  0.20113051  0.29709763  0.45711291     0.13600
C2428       C  0.17877288  0.31880730  0.45946785    -0.22500
C2429       C  0.14300036  0.29883821  0.53433672    -0.05600
H2430       H  0.19080790  0.26268048  0.52456175     0.15100
C2431       C  0.21874397  0.29575528  0.42841085    -0.15800
H2432       H  0.17554871  0.33470530  0.44140894     0.09400
H2433       H  0.04345391  0.36211100  0.46770925     0.07300
H2434       H  0.06394252  0.34254580  0.43963034     0.08500
H2435       H  0.06163357  0.38250046  0.43759205     0.07500
H2436       H  0.19439452  0.37437748  0.50000887     0.02400
H2437       H  0.17979611  0.35946472  0.53464773     0.02900
H2438       H  0.17842500  0.39897182  0.52751110     0.06400
H2439       H  0.14824328  0.28026938  0.55000235     0.05400
H2440       H  0.11969015  0.29590776  0.52638148    -0.00400
H2441       H  0.14464056  0.32018644  0.54683483     0.01100
H2442       H  0.20315811  0.29303771  0.40926510     0.04800
H2443       H  0.23451228  0.27665354  0.42775112     0.06700
H2444       H  0.23147176  0.31683840  0.42542828     0.07600
C2445       C  0.88983066  0.64640945  0.46670118    -0.22100
C2446       C  0.86268241  0.64393973  0.48182982     0.09900
C2447       C  0.85541447  0.61718030  0.49685035     0.10300
C2448       C  0.87647928  0.59398434  0.49802886    -0.17000
C2449       C  0.90445635  0.59682300  0.48408741    -0.27400
C2450       C  0.91074011  0.62308596  0.46726772     0.18600
C2451       C  0.84191457  0.66955443  0.48143680     0.12600
C2452       C  0.82541463  0.61317927  0.51156241    -0.11700
H2453       H  0.87124785  0.57377543  0.51035058     0.12900
C2454       C  0.93882678  0.62652284  0.44897413    -0.22600
H2455       H  0.89467905  0.66679629  0.45449807     0.08500
C2456       C  0.84239745  0.69147416  0.50412981     0.04900
C2457       C  0.81981302  0.71322695  0.50488459    -0.19800
C2458       C  0.79712060  0.71349295  0.48324720    -0.12100
C2459       C  0.79841175  0.69317957  0.45899681     0.13600
C2460       C  0.82062763  0.67118690  0.45860995    -0.22500
C2461       C  0.86611958  0.69119784  0.52802621    -0.05600
H2462       H  0.81877187  0.72875231  0.52346939     0.15100
C2463       C  0.77645803  0.69386613  0.43342098    -0.15800
H2464       H  0.82092242  0.65474508  0.44078514     0.09400
H2465       H  0.95856967  0.62834013  0.46384517     0.07300
H2466       H  0.93830377  0.64704326  0.43495843     0.08500
H2467       H  0.94136851  0.60710268  0.43370850     0.07500
H2468       H  0.80747782  0.61529006  0.49451970     0.02400
H2469       H  0.82215547  0.63050502  0.52902811     0.02900
H2470       H  0.82331505  0.59087315  0.52229097     0.06400
H2471       H  0.86318615  0.70988770  0.54411596     0.05400
H2472       H  0.88846897  0.69346937  0.51751813    -0.00400
H2473       H  0.86519694  0.66985978  0.54068814     0.01100
H2474       H  0.78879529  0.69557166  0.41193601     0.04800
H2475       H  0.76105679  0.71324797  0.43451752     0.06700
H2476       H  0.76310563  0.67295956  0.43337304     0.07600
C2477       C  0.14779866  0.48618091  0.37004419    -0.22100
C2478       C  0.13640021  0.49065597  0.34119447     0.09900
C2479       C  0.10565801  0.49505372  0.33703765     0.10300
C2480       C  0.08687786  0.49542690  0.36206041    -0.17000
C2481       C  0.09795439  0.49118745  0.39141755    -0.27400
C2482       C  0.12906374  0.48610840  0.39526184     0.18600
C2483       C  0.15726962  0.48966972  0.31568162     0.12600
C2484       C  0.09269983  0.49920920  0.30617689    -0.11700
H2485       H  0.06323978  0.49889438  0.35837735     0.12900
C2486       C  0.14288993  0.47971524  0.42537845    -0.22600
H2487       H  0.17157430  0.48241361  0.37272627     0.08500
C2488       C  0.17447698  0.51481425  0.30771405     0.04900
C2489       C  0.19755549  0.51143302  0.28686844    -0.19800
C2490       C  0.20352047  0.48356878  0.27385912    -0.12100
C2491       C  0.18492619  0.45891169  0.28022623     0.13600
C2492       C  0.16184187  0.46232832  0.30109480    -0.22500
C2493       C  0.16907497  0.54487173  0.32188741    -0.05600
H2494       H  0.21203826  0.53019947  0.28185609     0.15100
C2495       C  0.18984270  0.42843429  0.26676290    -0.15800
H2496       H  0.14827360  0.44318473  0.30713857     0.09400
H2497       H  0.14037788  0.49938150  0.44028332     0.07300
H2498       H  0.16716397  0.47491273  0.42357024     0.08500
H2499       H  0.13212843  0.45980667  0.43559019     0.07500
H2500       H  0.09731791  0.47910401  0.29237331     0.02400
H2501       H  0.10290887  0.51904891  0.29531661     0.02900
H2502       H  0.06813345  0.50260328  0.30687206     0.06400
H2503       H  0.18450567  0.56214197  0.31295268     0.05400
H2504       H  0.17245683  0.54339519  0.34645230    -0.00400
H2505       H  0.14584258  0.55221855  0.31725582     0.01100
H2506       H  0.19407412  0.41193943  0.28485869     0.04800
H2507       H  0.20901395  0.42775431  0.25114038     0.06700
H2508       H  0.16957792  0.42161777  0.25418221     0.07600
C2509       C  0.88414805  0.47691135  0.34617598    -0.22100
C2510       C  0.85934019  0.49569338  0.34855146     0.09900
C2511       C  0.85509908  0.51309484  0.37453280     0.10300
C2512       C  0.87661836  0.51202605  0.39733485    -0.17000
C2513       C  0.90205468  0.49382289  0.39463078    -0.27400
C2514       C  0.90559352  0.47561354  0.36891398     0.18600
C2515       C  0.83723819  0.49529315  0.32414294     0.12600
C2516       C  0.82779850  0.53246181  0.37825406    -0.11700
H2517       H  0.87377877  0.52571225  0.41715197     0.12900
C2518       C  0.93125121  0.45394325  0.36562559    -0.22600
H2519       H  0.88661845  0.46310640  0.32639464     0.08500
C2520       C  0.83836188  0.51583461  0.30019851     0.04900
C2521       C  0.81579336  0.51522053  0.27836595    -0.19800
C2522       C  0.79238935  0.49448082  0.28021989    -0.12100
C2523       C  0.79266987  0.47257397  0.30313078     0.13600
C2524       C  0.81505126  0.47338668  0.32488595    -0.22500
C2525       C  0.86290307  0.53874811  0.29820924    -0.05600
H2526       H  0.81536492  0.53213473  0.26098735     0.15100
C2527       C  0.76938244  0.44836253  0.30568000    -0.15800
H2528       H  0.81487256  0.45716092  0.34294255     0.09400
H2529       H  0.95263939  0.46621110  0.36330319     0.07300
H2530       H  0.92877384  0.43972761  0.34540846     0.08500
H2531       H  0.93224851  0.43892435  0.38540924     0.07500
H2532       H  0.80741295  0.51837077  0.37746159     0.02400
H2533       H  0.82674166  0.54928234  0.36002439     0.02900
H2534       H  0.82799530  0.54456480  0.39995557     0.06400
H2535       H  0.86047951  0.55307632  0.27804226     0.05400
H2536       H  0.88487839  0.52730531  0.29700595    -0.00400
H2537       H  0.86248483  0.55339623  0.31823672     0.01100
H2538       H  0.78050542  0.42616647  0.30558636     0.04800
H2539       H  0.75311822  0.44856404  0.28700103     0.06700
H2540       H  0.75694529  0.45100615  0.32700923     0.07600
C2541       C  0.14567780  0.48117298  0.61834745    -0.22100
C2542       C  0.13535131  0.49126976  0.64612976     0.09900
C2543       C  0.10642209  0.50293463  0.64897151     0.10300
C2544       C  0.08823476  0.50440637  0.62366708    -0.17000
C2545       C  0.09814041  0.49408781  0.59551577    -0.27400
C2546       C  0.12737886  0.48215149  0.59290948     0.18600
C2547       C  0.15591677  0.49067425  0.67166746     0.12600
C2548       C  0.09471659  0.51355766  0.67875413    -0.11700
H2549       H  0.06599397  0.51366234  0.62608480     0.12900
C2550       C  0.13929592  0.46952141  0.56400908    -0.22600
H2551       H  0.16819016  0.47238112  0.61668759     0.08500
C2552       C  0.16137301  0.46420947  0.68789363     0.04900
C2553       C  0.18419669  0.46396491  0.70933733    -0.19800
C2554       C  0.20105546  0.48973961  0.71484962    -0.12100
C2555       C  0.19424844  0.51670019  0.69979996     0.13600
C2556       C  0.17162443  0.51680400  0.67834391    -0.22500
C2557       C  0.14353359  0.43628104  0.68207647    -0.05600
H2558       H  0.18987183  0.44332315  0.72072012     0.15100
C2559       C  0.21126281  0.54535603  0.70476499    -0.15800
H2560       H  0.16699103  0.53709740  0.66586124     0.09400
H2561       H  0.12437902  0.45138700  0.55605777     0.07300
H2562       H  0.16200155  0.45989093  0.56680074     0.08500
H2563       H  0.14086194  0.48739697  0.54684628     0.07500
H2564       H  0.10861351  0.53232586  0.68708922     0.02400
H2565       H  0.09546239  0.49494281  0.69519150     0.02900
H2566       H  0.07126220  0.52149990  0.67713216     0.06400
H2567       H  0.15063974  0.41760589  0.69685075     0.05400
H2568       H  0.14645297  0.42908869  0.65848898    -0.00400
H2569       H  0.11950814  0.44076889  0.68629049     0.01100
H2570       H  0.22168645  0.55262401  0.68342177     0.04800
H2571       H  0.22917333  0.54320508  0.72169850     0.06700
H2572       H  0.19563023  0.56301589  0.71248226     0.07600
C2573       C  0.85769064  0.48279707  0.61914034    -0.22100
C2574       C  0.86547756  0.49807125  0.64535415     0.09900
C2575       C  0.89224897  0.51442002  0.64669520     0.10300
C2576       C  0.91095997  0.51491576  0.62160302    -0.17000
C2577       C  0.90347347  0.49937156  0.59524691    -0.27400
C2578       C  0.87628323  0.48326911  0.59392735     0.18600
C2579       C  0.84419797  0.49765309  0.67046469     0.12600
C2580       C  0.90112063  0.53103645  0.67463524    -0.11700
H2581       H  0.93169323  0.52738050  0.62264693     0.12900
C2582       C  0.86705807  0.46577360  0.56659269    -0.22600
H2583       H  0.83682469  0.47052995  0.61846137     0.08500
C2584       C  0.82090612  0.51873588  0.67185492     0.04900
C2585       C  0.79864508  0.51530267  0.69347802    -0.19800
C2586       C  0.79837904  0.49053946  0.71279083    -0.12100
C2587       C  0.82192099  0.46948095  0.71154396     0.13600
C2588       C  0.84507131  0.47381443  0.69083123    -0.22500
C2589       C  0.81851247  0.54370261  0.64928333    -0.05600
H2590       H  0.78010866  0.53091114  0.69395673     0.15100
C2591       C  0.82210549  0.44103439  0.72962416    -0.15800
H2592       H  0.86279121  0.45736538  0.68911510     0.09400
H2593       H  0.86334484  0.48117504  0.54746500     0.07300
H2594       H  0.84590741  0.45336182  0.57032136     0.08500
H2595       H  0.88461468  0.44922372  0.56077419     0.07500
H2596       H  0.90321651  0.51508287  0.69356687     0.02400
H2597       H  0.88395047  0.54803254  0.68022524     0.02900
H2598       H  0.92284382  0.54269394  0.67187118     0.06400
H2599       H  0.79865089  0.55799686  0.65340997     0.05400
H2600       H  0.81647954  0.53421882  0.62641198    -0.00400
H2601       H  0.83867207  0.55805657  0.65034162     0.01100
H2602       H  0.82319465  0.42153786  0.71428435     0.04800
H2603       H  0.80190686  0.43825539  0.74357723     0.06700
H2604       H  0.84197535  0.44071484  0.74449057     0.07600
C2605       C  0.00736139  0.60850103  0.33864486    -0.22100
C2606       C  0.00216034  0.63815883  0.34707351     0.09900
C2607       C  0.99873775  0.64517243  0.37760475     0.10300
C2608       C  0.00036339  0.62228066  0.39906167    -0.17000
C2609       C  0.00441637  0.59206850  0.39092931    -0.27400
C2610       C  0.00859060  0.58532510  0.35998675     0.18600
C2611       C  0.99880537  0.66140203  0.32353226     0.12600
C2612       C  0.99268808  0.67680906  0.38751350    -0.11700
H2613       H  0.99778767  0.62818785  0.42239661     0.12900
C2614       C  0.01473580  0.55411127  0.34883613    -0.22600
H2615       H  0.01006566  0.60344911  0.31507361     0.08500
C2616       C  0.02305454  0.67915324  0.31395607     0.04900
C2617       C  0.01796101  0.70273291  0.29370185    -0.19800
C2618       C  0.98939890  0.70807791  0.28193376    -0.12100
C2619       C  0.96536198  0.68949739  0.29073760     0.13600
C2620       C  0.97037350  0.66649272  0.31149369    -0.22500
C2621       C  0.05423713  0.67296577  0.32492340    -0.05600
H2622       H  0.03626668  0.71702616  0.28695479     0.15100
C2623       C  0.93381983  0.69444999  0.28008258    -0.15800
H2624       H  0.95177938  0.65286386  0.31893485     0.09400
H2625       H  0.01885808  0.55362700  0.32432433     0.07300
H2626       H  0.99524993  0.53944140  0.35323876     0.08500
H2627       H  0.03497607  0.54512051  0.35999464     0.07500
H2628       H  0.97157428  0.68490718  0.37728798     0.02400
H2629       H  0.01127648  0.69160110  0.38044130     0.02900
H2630       H  0.99044796  0.67847814  0.41221351     0.06400
H2631       H  0.07066391  0.68875542  0.31508978     0.05400
H2632       H  0.06086149  0.64991731  0.31850019    -0.00400
H2633       H  0.05519149  0.67508684  0.34964221     0.01100
H2634       H  0.92603786  0.67442177  0.26767928     0.04800
H2635       H  0.93145804  0.71416832  0.26529811     0.06700
H2636       H  0.91900012  0.69806597  0.29967512     0.07600
C2637       C  0.01110308  0.37851513  0.64750814    -0.22100
C2638       C  0.99603627  0.35169891  0.64149632     0.09900
C2639       C  0.98306749  0.34747258  0.61301114     0.10300
C2640       C  0.98525603  0.37018298  0.59131731    -0.17000
C2641       C  0.99985898  0.39742802  0.59727531    -0.27400
C2642       C  0.01326441  0.40141744  0.62588098     0.18600
C2643       C  0.99378192  0.32843878  0.66539148     0.12600
C2644       C  0.96705446  0.31885243  0.60538572    -0.11700
H2645       H  0.97499466  0.36674697  0.56961766     0.12900
C2646       C  0.03064651  0.42921390  0.63370628    -0.22600
H2647       H  0.02113901  0.38155526  0.66937764     0.08500
C2648       C  0.01800608  0.30948221  0.67264691     0.04900
C2649       C  0.01449031  0.28752882  0.69498908    -0.19800
C2650       C  0.98716735  0.28368952  0.70990026    -0.12100
C2651       C  0.96270649  0.30207856  0.70195240     0.13600
C2652       C  0.96652004  0.32465258  0.68038903    -0.22500
C2653       C  0.04733372  0.31203165  0.65639155    -0.05600
H2654       H  0.03309446  0.27320818  0.70087361     0.15100
C2655       C  0.93194709  0.29746600  0.71463685    -0.15800
H2656       H  0.94776394  0.33884326  0.67452885     0.09400
H2657       H  0.04876586  0.43278165  0.61712173     0.07300
H2658       H  0.04112280  0.42750526  0.65618902     0.08500
H2659       H  0.01560743  0.44892334  0.63409092     0.07500
H2660       H  0.94752031  0.31586768  0.62036094     0.02400
H2661       H  0.98247856  0.29959991  0.60815882     0.02900
H2662       H  0.95880614  0.31887139  0.58193447     0.06400
H2663       H  0.06369192  0.29509836  0.66430550     0.05400
H2664       H  0.05708875  0.33452483  0.66009432    -0.00400
H2665       H  0.04375204  0.30857229  0.63204545     0.01100
H2666       H  0.92546762  0.31716076  0.72827734     0.04800
H2667       H  0.93038415  0.27709967  0.72857473     0.06700
H2668       H  0.91569956  0.29476735  0.69605256     0.07600
C2669       C  0.97130556  0.66608209  0.67953402    -0.22100
C2670       C  0.99856666  0.66139155  0.66483421     0.09900
C2671       C  0.02345079  0.67917546  0.67250349     0.10300
C2672       C  0.02025969  0.70183641  0.69408459    -0.17000
C2673       C  0.99286706  0.70689879  0.70848928    -0.27400
C2674       C  0.96807071  0.68870644  0.70111444     0.18600
C2675       C  0.00009991  0.63880167  0.64042378     0.12600
C2676       C  0.05343402  0.67388840  0.65821733    -0.11700
H2677       H  0.03928645  0.71552096  0.70010306     0.12900
C2678       C  0.93766099  0.69324789  0.71468119    -0.22600
H2679       H  0.95219582  0.65244434  0.67358010     0.08500
C2680       C  0.00335287  0.60807650  0.64641162     0.04900
C2681       C  0.00422021  0.58769148  0.62251442    -0.19800
C2682       C  0.00162391  0.59698883  0.59237086    -0.12100
C2683       C  0.99827880  0.62818503  0.58658303     0.13600
C2684       C  0.99767832  0.64846751  0.61070039    -0.22500
C2685       C  0.00603345  0.59677574  0.67807133    -0.05600
H2686       H  0.00685315  0.56418040  0.62769396     0.15100
C2687       C  0.99489666  0.64073650  0.55541769    -0.15800
H2688       H  0.99504977  0.67218535  0.60641575     0.09400
H2689       H  0.93140983  0.67319700  0.72793674     0.07300
H2690       H  0.92096390  0.69654515  0.69659651     0.08500
H2691       H  0.93656728  0.71313371  0.72932652     0.07500
H2692       H  0.05184235  0.67724799  0.63365767     0.02400
H2693       H  0.06087514  0.65064966  0.66283706     0.02900
H2694       H  0.07064663  0.68941871  0.66705862     0.06400
H2695       H  0.00869924  0.57209463  0.67888391     0.05400
H2696       H  0.98564867  0.60271520  0.69088728    -0.00400
H2697       H  0.02579247  0.60703070  0.68900517     0.01100
H2698       H  0.99212816  0.66542136  0.55558793     0.04800
H2699       H  0.97477776  0.63114520  0.54452851     0.06700
H2700       H  0.01512850  0.63571477  0.54198614     0.07600
C2701       C  0.96339375  0.31738528  0.17261229    -0.22100
C2702       C  0.98824338  0.33615460  0.17069389     0.09900
C2703       C  0.01129747  0.33399955  0.19214242     0.10300
C2704       C  0.01017376  0.31107175  0.21358550    -0.17000
C2705       C  0.98633378  0.29074780  0.21398629    -0.27400
C2706       C  0.96197701  0.29486859  0.19422831     0.18600
C2707       C  0.98974174  0.35731886  0.14546434     0.12600
C2708       C  0.03720041  0.35547697  0.19199382    -0.11700
H2709       H  0.02881129  0.30785010  0.22873830     0.12900
C2710       C  0.93444578  0.27550451  0.19496006    -0.22600
H2711       H  0.94533650  0.31982206  0.15660355     0.08500
C2712       C  0.00568853  0.35041565  0.11912201     0.04900
C2713       C  0.00653694  0.37133235  0.09577058    -0.19800
C2714       C  0.99127007  0.39862543  0.09800392    -0.12100
C2715       C  0.97338172  0.40440639  0.12363795     0.13600
C2716       C  0.97320430  0.38374029  0.14718347    -0.22500
C2717       C  0.02120040  0.32074488  0.11539236    -0.05600
H2718       H  0.01944081  0.36648654  0.07585160     0.15100
C2719       C  0.95341271  0.43153164  0.12599152    -0.15800
H2720       H  0.95998671  0.38808184  0.16704272     0.09400
H2721       H  0.93273839  0.26266249  0.17376950     0.07300
H2722       H  0.91434644  0.28986403  0.19729406     0.08500
H2723       H  0.93436199  0.25963035  0.21402270     0.07500
H2724       H  0.02879742  0.37865443  0.19486274     0.02400
H2725       H  0.04950288  0.35398886  0.17051286     0.02900
H2726       H  0.05316217  0.35067223  0.21041904     0.06400
H2727       H  0.03216086  0.31885249  0.09317385     0.05400
H2728       H  0.00464814  0.30238211  0.11738349    -0.00400
H2729       H  0.03857098  0.31785583  0.13284309     0.01100
H2730       H  0.93879569  0.43049778  0.14605167     0.04800
H2731       H  0.93871570  0.43292399  0.10600797     0.06700
H2732       H  0.96695560  0.45217343  0.12797113     0.07600
C2733       C  0.02941973  0.17169975  0.31782358    -0.22100
C2734       C  0.00681294  0.17318414  0.33931946     0.09900
C2735       C  0.98561620  0.19645071  0.33842451     0.10300
C2736       C  0.98575462  0.21618195  0.31406574    -0.17000
C2737       C  0.00687836  0.21307305  0.29110308    -0.27400
C2738       C  0.02987787  0.19156208  0.29373360     0.18600
C2739       C  0.00448872  0.14858704  0.36097104     0.12600
C2740       C  0.96231254  0.19962847  0.36250197    -0.11700
H2741       H  0.96821888  0.23276381  0.31199915     0.12900
C2742       C  0.05489768  0.18860406  0.27135792    -0.22600
H2743       H  0.04612284  0.15417950  0.31924512     0.08500
C2744       C  0.99023532  0.12158868  0.35323299     0.04900
C2745       C  0.98999604  0.09800340  0.37382280    -0.19800
C2746       C  0.00321967  0.10106524  0.40212829    -0.12100
C2747       C  0.01748151  0.12847964  0.40977973     0.13600
C2748       C  0.01794101  0.15181202  0.38891599    -0.22500
C2749       C  0.97521739  0.11779082  0.32327872    -0.05600
H2750       H  0.97925206  0.07718348  0.36784005     0.15100
C2751       C  0.03326674  0.13330244  0.43928011    -0.15800
H2752       H  0.02902279  0.17268108  0.39427154     0.09400
H2753       H  0.05394565  0.16622364  0.26067213     0.07300
H2754       H  0.07663985  0.19100493  0.28306848     0.08500
H2755       H  0.05414716  0.20584172  0.25356886     0.07500
H2756       H  0.97340378  0.20329471  0.38442424     0.02400
H2757       H  0.94854948  0.17903093  0.36371616     0.02900
H2758       H  0.94722765  0.21887320  0.35815563     0.06400
H2759       H  0.96485227  0.09535773  0.32097386     0.05400
H2760       H  0.99182187  0.12049264  0.30504072    -0.00400
H2761       H  0.95739968  0.13486768  0.32063362     0.01100
H2762       H  0.05004546  0.11538106  0.44296531     0.04800
H2763       H  0.01687947  0.13361311  0.45789967     0.06700
H2764       H  0.04524969  0.15502505  0.43991730     0.07600
C2765       C  0.01502131  0.37278507  0.34743535    -0.22100
C2766       C  0.00331204  0.34466074  0.35454146     0.09900
C2767       C  0.99338263  0.33912754  0.38400522     0.10300
C2768       C  0.99296310  0.36270943  0.40492010    -0.17000
C2769       C  0.00323613  0.39160620  0.39746928    -0.27400
C2770       C  0.01562378  0.39615199  0.36848803     0.18600
C2771       C  0.00131907  0.32177541  0.33038185     0.12600
C2772       C  0.98409881  0.30817904  0.39359648    -0.11700
H2773       H  0.98448274  0.35846440  0.42723002     0.12900
C2774       C  0.03054489  0.42505957  0.35958253    -0.22600
H2775       H  0.02358550  0.37651526  0.32505128     0.08500
C2776       C  0.97438714  0.31683594  0.31458437     0.04900
C2777       C  0.97384169  0.29617856  0.29084238    -0.19800
C2778       C  0.99973098  0.28091259  0.28201189    -0.12100
C2779       C  0.02692306  0.28678435  0.29699487     0.13600
C2780       C  0.02731053  0.30679402  0.32125610    -0.22500
C2781       C  0.94646378  0.33407273  0.32212293    -0.05600
H2782       H  0.95313430  0.29173337  0.27911531     0.15100
C2783       C  0.05603566  0.27317444  0.28710287    -0.15800
H2784       H  0.04818962  0.31129291  0.33268766     0.09400
H2785       H  0.01386528  0.44335596  0.35826075     0.07300
H2786       H  0.04132510  0.42341580  0.33725907     0.08500
H2787       H  0.04824036  0.43078047  0.37604003     0.07500
H2788       H  0.00305816  0.29247961  0.39044087     0.02400
H2789       H  0.96489030  0.30028036  0.38011770     0.02900
H2790       H  0.97751572  0.30755937  0.41755402     0.06400
H2791       H  0.92758642  0.32787619  0.30724609     0.05400
H2792       H  0.95068006  0.35838503  0.31946442    -0.00400
H2793       H  0.93957413  0.32959106  0.34551313     0.01100
H2794       H  0.07227065  0.29124993  0.28209534     0.04800
H2795       H  0.05373250  0.25955570  0.26654862     0.06700
H2796       H  0.06515183  0.25884012  0.30522817     0.07600
loop_ 
_geom_bond_atom_site_label_1 
_geom_bond_atom_site_label_2 
_geom_bond_distance 
_geom_bond_site_symmetry_2 
_ccdc_geom_bond_type 
N1            C5   1.355       .  A
N1            C2   1.354   1_655  A
N1         C2778   1.444       .  S
C2            C3   1.381   1_455  A
C2         C2737   1.469       .  S
C3            C4   1.370       .  A
C3            H6   1.082       .  S
C4            C5   1.383       .  A
C4            H7   1.082       .  S
C5         C2705   1.472       .  S
O8          Zr44   2.452       .  S
O8           C19   1.294       .  A
O9          Zr43   2.453       .  S
O9           C20   1.294       .  A
O10         Zr16   2.417       .  S
O10          C21   1.287       .  A
O11         Zr16   2.413   1_655  S
O11          C22   1.289       .  A
O12         Zr46   2.445       .  S
O12          C22   1.293       .  A
O13         Zr45   2.452       .  S
O13          C21   1.296       .  A
O14         Zr16   2.453       .  S
O14          C20   1.295       .  A
O15         Zr16   2.447       .  S
O15          C19   1.294       .  A
Zr16         O17   2.338   1_455  S
Zr16         O18   2.334       .  S
Zr16         O26   2.342   1_455  S
Zr16         O24   2.334       .  S
O17         Zr43   2.330   1_655  S
O17         Zr46   2.344       .  S
O18         Zr44   2.330       .  S
O18         Zr45   2.340       .  S
C19        C2769   1.502       .  S
C20        C2641   1.501   1_455  S
C21        C2417   1.481       .  S
C22        C2385   1.484       .  S
H23          O24   0.967       .  S
O24         Zr43   2.341       .  S
O24         Zr45   2.350       .  S
H25          O26   0.964       .  S
O26         Zr44   2.336   1_655  S
O26         Zr46   2.348       .  S
O27         Zr43   2.444       .  S
O27          C50   1.294       .  A
O28         Zr44   2.445       .  S
O28          C51   1.292       .  A
O29         Zr45   2.449       .  S
O29          C52   1.294       .  A
O30         Zr46   2.442       .  S
O30          C53   1.292       .  A
O31         Zr46   2.436       .  S
O31          C54   1.292       .  A
O32         Zr45   2.459       .  S
O32          C55   1.295       .  A
O33         Zr47   2.415       .  S
O33          C56   1.289       .  A
O34         Zr47   2.420   1_655  S
O34          C57   1.288       .  A
O35         Zr45   2.460       .  S
O35          C56   1.296       .  A
O36         Zr46   2.450       .  S
O36          C57   1.295       .  A
O37         Zr43   2.399       .  S
O37          C52   1.287       .  A
O38         Zr44   2.412       .  S
O38          C55   1.289       .  A
O39         Zr44   2.422   1_655  S
O39          C54   1.289       .  A
O40         Zr43   2.417   1_655  S
O40          C53   1.289       .  A
O41         Zr47   2.453       .  S
O41          C50   1.294       .  A
O42         Zr47   2.451       .  S
O42          C51   1.295       .  A
Zr43         O49   2.338       .  S
Zr43         O61   2.339   1_455  S
Zr44         O48   2.332   1_455  S
Zr44         O59   2.343       .  S
Zr45         O49   2.344       .  S
Zr45         O59   2.341       .  S
Zr46         O48   2.340       .  S
Zr46         O61   2.340       .  S
Zr47         O48   2.335   1_455  S
Zr47         O49   2.335       .  S
Zr47         O61   2.339   1_455  S
Zr47         O59   2.338       .  S
C50        C2682   1.507       .  S
C51        C2609   1.505       .  S
C52        C2545   1.482       .  S
C53        C2577   1.478       .  S
C54        C2513   1.474       .  S
C55        C2481   1.496       .  S
C56        C2353   1.495       .  S
C57        C2449   1.484       .  S
H58          O59   0.965       .  S
H60          O61   0.966       .  S
N62          C66   1.357       .  A
N62          C63   1.357       .  A
N62        C2673   1.445       .  S
C63          C64   1.383       .  A
C63        C2289   1.474       .  S
C64          C65   1.369       .  A
C64          H67   1.082       .  S
C65          C66   1.380       .  A
C65          H68   1.082       .  S
C66        C2321   1.471   1_655  S
N69          C73   1.358       .  A
N69          C70   1.354       .  A
N69        C2650   1.446       .  S
C70          C71   1.380       .  A
C70        C2257   1.468       .  S
C71          C72   1.370       .  A
C71          H74   1.082       .  S
C72          C73   1.383       .  A
C72          H75   1.082       .  S
C73        C2225   1.474       .  S
N76          C80   1.355       .  A
N76          C77   1.356       .  A
N76        C2618   1.441       .  S
C77          C78   1.379       .  A
C77        C2170   1.470       .  S
C78          C79   1.369       .  A
C78          H81   1.082       .  S
C79          C80   1.385       .  A
C79          H82   1.083       .  S
C80        C2193   1.476       .  S
O83        Zr119   2.454   1_545  S
O83          C94   1.296       .  A
O84        Zr118   2.458   1_545  S
O84          C95   1.295       .  A
O85         Zr91   2.442   1_655  S
O85          C96   1.292       .  A
O86         Zr91   2.454       .  S
O86          C97   1.294       .  A
O87        Zr121   2.453   1_545  S
O87          C97   1.295       .  A
O88        Zr120   2.453   1_545  S
O88          C96   1.295       .  A
O89         Zr91   2.414       .  S
O89          C95   1.289       .  A
O90         Zr91   2.400       .  S
O90          C94   1.283       .  A
Zr91         O92   2.330       .  S
Zr91         O93   2.336   1_455  S
Zr91        O101   2.340       .  S
Zr91         O99   2.330   1_455  S
O92        Zr118   2.338   1_545  S
O92        Zr121   2.338   1_545  S
O93        Zr119   2.338   1_645  S
O93        Zr120   2.338   1_545  S
C94        C2746   1.478       .  S
C95        C2266   1.490       .  S
C96        C2097   1.496       .  S
C97        C2138   1.505       .  S
H98          O99   0.967       .  S
O99        Zr118   2.346   1_645  S
O99        Zr120   2.345   1_545  S
H100        O101   0.968       .  S
O101       Zr119   2.347   1_545  S
O101       Zr121   2.339   1_545  S
O102       Zr118   2.452       .  S
O102        C125   1.296       .  A
O103       Zr119   2.440       .  S
O103        C126   1.292       .  A
O104       Zr120   2.413       .  S
O104        C127   1.289       .  A
O105       Zr121   2.397       .  S
O105        C128   1.284       .  A
O106       Zr121   2.406       .  S
O106        C129   1.288       .  A
O107       Zr120   2.424       .  S
O107        C130   1.290       .  A
O108       Zr122   2.436   1_655  S
O108        C131   1.290       .  A
O109       Zr122   2.433       .  S
O109        C132   1.289       .  A
O110       Zr120   2.462       .  S
O110        C131   1.297       .  A
O111       Zr121   2.459       .  S
O111        C132   1.296       .  A
O112       Zr118   2.447   1_655  S
O112        C127   1.294       .  A
O113       Zr119   2.462   1_645  S
O113        C130   1.297   1_545  A
O114       Zr119   2.455       .  S
O114        C129   1.295       .  A
O115       Zr118   2.467       .  S
O115        C128   1.298       .  A
O116       Zr122   2.420       .  S
O116        C125   1.287       .  A
O117       Zr122   2.427       .  S
O117        C126   1.289       .  A
Zr118       O124   2.353   1_455  S
Zr118       O136   2.345       .  S
Zr119       O123   2.343       .  S
Zr119       O134   2.351   1_455  S
Zr120       O124   2.339       .  S
Zr120       O134   2.338       .  S
Zr121       O123   2.328       .  S
Zr121       O136   2.335       .  S
Zr122       O123   2.329       .  S
Zr122       O124   2.333   1_455  S
Zr122       O136   2.340       .  S
Zr122       O134   2.343   1_455  S
C125       C2330   1.491       .  S
C126       C2202   1.463       .  S
C127       C1914   1.481       .  S
C128       C1937   1.480   1_565  S
C129       C1969   1.484       .  S
C130       C2001   1.489   1_565  S
C131       C2065   1.502       .  S
C132       C2033   1.503       .  S
H133        O134   0.966       .  S
H135        O136   0.967       .  S
N137        C141   1.361       .  A
N137        C138   1.359       .  A
N137       C2129   1.447       .  S
C138        C139   1.382       .  A
C138       C2426   1.479       .  S
C139        C140   1.369       .  A
C139        H142   1.082       .  S
C140        C141   1.383       .  A
C140        H143   1.082       .  S
C141       C1873   1.481       .  S
N144        C148   1.359       .  A
N144        C145   1.357       .  A
N144       C2106   1.448       .  S
C145        C146   1.380       .  A
C145       C2394   1.469       .  S
C146        C147   1.367       .  A
C146        H149   1.082       .  S
C147        C148   1.382       .  A
C147        H150   1.082       .  S
C148       C1850   1.474       .  S
N151        C155   1.357       .  A
N151        C152   1.359       .  A
N151       C2074   1.446       .  S
C152        C153   1.382       .  A
C152       C1809   1.477       .  S
C153        C154   1.369       .  A
C153        H156   1.082       .  S
C154        C155   1.382       .  A
C154        H157   1.082       .  S
C155       C2458   1.475       .  S
N158        C162   1.359       .  A
N158        C159   1.359       .  A
N158       C2042   1.448       .  S
C159        C160   1.382       .  A
C159       C2362   1.477       .  S
C160        C161   1.368       .  A
C160        H163   1.082       .  S
C161        C162   1.380       .  A
C161        H164   1.082       .  S
C162       C1786   1.473       .  S
N165        C169   1.359       .  A
N165        C166   1.356       .  A
N165       C1754   1.444       .  S
C166        C167   1.380       .  A
C166       C2010   1.474       .  S
C167        C168   1.372       .  A
C167        H170   1.082       .  S
C168        C169   1.383       .  A
C168        H171   1.082       .  S
C169       C1713   1.478       .  S
O172       Zr208   2.476       .  S
O172        C183   1.300       .  A
O173       Zr207   2.455       .  S
O173        C184   1.295       .  A
O174       Zr180   2.438       .  S
O174        C185   1.290       .  A
O175       Zr180   2.436       .  S
O175        C186   1.290       .  A
O176       Zr210   2.454       .  S
O176        C186   1.295       .  A
O177       Zr209   2.456       .  S
O177        C185   1.296       .  A
O178       Zr180   2.409       .  S
O178        C184   1.288       .  A
O179       Zr180   2.416   1_545  S
O179        C183   1.288       .  A
Zr180       O181   2.332       .  S
Zr180       O182   2.334   1_565  S
Zr180       O190   2.335   1_565  S
Zr180       O188   2.340       .  S
O181       Zr207   2.347       .  S
O181       Zr210   2.337       .  S
O182       Zr208   2.343       .  S
O182       Zr209   2.337   1_545  S
C183       C1882   1.484       .  S
C184       C1777   1.482       .  S
C185       C1617   1.499       .  S
C186       C1681   1.503       .  S
H187        O188   0.967       .  S
O188       Zr207   2.349       .  S
O188       Zr209   2.335       .  S
H189        O190   0.964       .  S
O190       Zr208   2.351       .  S
O190       Zr210   2.334   1_545  S
O191       Zr207   2.463       .  S
O191        C214   1.297       .  A
O192       Zr208   2.470       .  S
O192        C215   1.299       .  A
O193       Zr209   2.404       .  S
O193        C216   1.285       .  A
O194       Zr210   2.430       .  S
O194        C217   1.292       .  A
O195       Zr210   2.425   1_545  S
O195        C218   1.291       .  A
O196       Zr209   2.410   1_545  S
O196        C219   1.286       .  A
O197       Zr211   2.448       .  S
O197        C220   1.293       .  A
O198       Zr211   2.448       .  S
O198        C221   1.292       .  A
O199       Zr209   2.448       .  S
O199        C220   1.294       .  A
O200       Zr210   2.445       .  S
O200        C221   1.294       .  A
O201       Zr207   2.457       .  S
O201        C216   1.296       .  A
O202       Zr208   2.462       .  S
O202        C219   1.297       .  A
O203       Zr208   2.444       .  S
O203        C218   1.293       .  A
O204       Zr207   2.441       .  S
O204        C217   1.292       .  A
O205       Zr211   2.425       .  S
O205        C214   1.289       .  A
O206       Zr211   2.408   1_545  S
O206        C215   1.286       .  A
Zr207       O213   2.343       .  S
Zr207       O225   2.348       .  S
Zr208       O212   2.351       .  S
Zr208       O223   2.349       .  S
Zr209       O213   2.342       .  S
Zr209       O223   2.333   1_565  S
Zr210       O212   2.341   1_565  S
Zr210       O225   2.334       .  S
Zr211       O212   2.337   1_565  S
Zr211       O213   2.335       .  S
Zr211       O225   2.334       .  S
Zr211       O223   2.345   1_565  S
C214       C1818   1.485       .  S
C215       C1841   1.483       .  S
C216       C1521   1.475       .  S
C217       C1585   1.489       .  S
C218       C1553   1.481       .  S
C219       C1498   1.482       .  S
C220       C1745   1.501       .  S
C221       C1649   1.499       .  S
H222        O223   0.962       .  S
H224        O225   0.959       .  S
N226        C230   1.354       .  A
N226        C227   1.355       .  A
N226       C1690   1.444       .  S
C227        C228   1.381       .  A
C227       C1457   1.469   1_545  S
C228        C229   1.368       .  A
C228        H231   1.082       .  S
C229        C230   1.383       .  A
C229        H232   1.082       .  S
C230       C1946   1.470       .  S
N233        C237   1.357       .  A
N233        C234   1.355       .  A
N233       C1658   1.445       .  S
C234        C235   1.380       .  A
C234       C1905   1.469       .  S
C235        C236   1.372       .  A
C235        H238   1.082       .  S
C236        C237   1.381       .  A
C236        H239   1.082       .  S
C237       C1425   1.473       .  S
N240        C244   1.354       .  A
N240        C241   1.355       .  A
N240       C1626   1.444       .  S
C241        C242   1.383       .  A
C241       C1402   1.472       .  S
C242        C243   1.372       .  A
C242        H245   1.082       .  S
C243        C244   1.379       .  A
C243        H246   1.082       .  S
C244       C1978   1.468       .  S
O247       Zr283   2.454   1_554  S
O247        C258   1.295       .  A
O248       Zr282   2.454   1_554  S
O248        C259   1.296       .  A
O249       Zr255   2.464   1_545  S
O249        C260   1.298       .  A
O250       Zr255   2.466       .  S
O250        C261   1.298       .  A
O251       Zr285   2.437   1_554  S
O251        C261   1.290       .  A
O252       Zr284   2.427   1_554  S
O252        C260   1.288       .  A
O253       Zr255   2.409       .  S
O253        C259   1.287       .  A
O254       Zr255   2.418       .  S
O254        C258   1.289       .  A
Zr255       O256   2.338       .  S
Zr255       O257   2.333   1_565  S
Zr255       O265   2.341       .  S
Zr255       O263   2.343   1_565  S
O256       Zr282   2.342   1_554  S
O256       Zr285   2.334   1_554  S
O257       Zr283   2.340   1_544  S
O257       Zr284   2.336   1_554  S
C258       C1722   1.478   1_565  S
C259       C1393   1.471       .  S
C260       C1361   1.502       .  S
C261       C1329   1.501       .  S
H262        O263   0.968       .  S
O263       Zr282   2.342   1_544  S
O263       Zr284   2.339   1_554  S
H264        O265   0.968       .  S
O265       Zr283   2.340   1_554  S
O265       Zr285   2.337   1_554  S
O266       Zr282   2.451       .  S
O266        C289   1.295       .  A
O267       Zr283   2.452       .  S
O267        C290   1.295       .  A
O268       Zr284   2.423       .  S
O268        C291   1.291       .  A
O269       Zr285   2.408       .  S
O269        C292   1.285   1_556  A
O270       Zr285   2.409       .  S
O270        C293   1.288       .  A
O271       Zr284   2.418       .  S
O271        C294   1.290       .  A
O272       Zr286   2.452   1_545  S
O272        C295   1.294       .  A
O273       Zr286   2.436       .  S
O273        C296   1.293       .  A
O274       Zr284   2.448       .  S
O274        C295   1.293       .  A
O275       Zr285   2.438       .  S
O275        C296   1.290       .  A
O276       Zr282   2.444   1_545  S
O276        C291   1.292       .  A
O277       Zr283   2.437   1_545  S
O277        C294   1.291       .  A
O278       Zr283   2.453       .  S
O278        C293   1.295       .  A
O279       Zr282   2.460       .  S
O279        C292   1.297   1_556  A
O280       Zr286   2.407       .  S
O280        C289   1.287       .  A
O281       Zr286   2.420       .  S
O281        C290   1.290       .  A
Zr282       O288   2.351   1_565  S
Zr282       O300   2.341       .  S
Zr283       O287   2.339       .  S
Zr283       O298   2.349   1_565  S
Zr284       O288   2.330       .  S
Zr284       O298   2.333       .  S
Zr285       O287   2.332       .  S
Zr285       O300   2.332       .  S
Zr286       O287   2.337       .  S
Zr286       O288   2.334   1_565  S
Zr286       O300   2.345       .  S
Zr286       O298   2.335   1_565  S
C289       C1466   1.472       .  S
C290       C1434   1.489       .  S
C291       C1233   1.494       .  S
C292       C1169   1.484       .  S
C293       C1201   1.484       .  S
C294       C1137   1.483   1_556  S
C295       C1265   1.499       .  S
C296       C1297   1.497       .  S
H297        O298   0.965       .  S
H299        O300   0.968       .  S
N301        C305   1.355       .  A
N301        C302   1.357       .  A
N301       C1370   1.444       .  S
C302        C303   1.383       .  A
C302       C1489   1.478       .  S
C303        C304   1.370       .  A
C303        H306   1.082       .  S
C304        C305   1.381       .  A
C304        H307   1.082       .  S
C305       C1114   1.473       .  S
N308        C312   1.358       .  A
N308        C309   1.357       .  A
N308       C1338   1.449       .  S
C309        C310   1.382       .  A
C309       C1082   1.473       .  S
C310        C311   1.368       .  A
C310        H313   1.082       .  S
C311        C312   1.381       .  A
C311        H314   1.082       .  S
C312       C1530   1.471       .  S
N315        C319   1.353       .  A
N315        C316   1.351       .  A
N315       C1306   1.439       .  S
C316        C317   1.380       .  A
C316       C1041   1.467       .  S
C317        C318   1.373       .  A
C317        H320   1.082       .  S
C318        C319   1.382       .  A
C318        H321   1.082       .  S
C319       C1594   1.470       .  S
N322        C326   1.359       .  A
N322        C323   1.357       .  A
N322       C1274   1.447       .  S
C323        C324   1.381       .  A
C323       C1562   1.472       .  S
C324        C325   1.367       .  A
C324        H327   1.082       .  S
C325        C326   1.383       .  A
C325        H328   1.082       .  S
C326       C1009   1.476       .  S
O329       Zr365   2.455   1_554  S
O329        C340   1.296       .  A
O330       Zr364   2.459   1_554  S
O330        C341   1.297       .  A
O331       Zr337   2.448   1_455  S
O331        C342   1.293       .  A
O332       Zr337   2.458       .  S
O332        C343   1.296       .  A
O333       Zr367   2.431   1_554  S
O333        C343   1.289       .  A
O334       Zr366   2.448   1_554  S
O334        C342   1.294       .  A
O335       Zr337   2.417       .  S
O335        C341   1.287       .  A
O336       Zr337   2.411       .  S
O336        C340   1.286       .  A
Zr337       O338   2.331       .  S
Zr337       O339   2.339   1_655  S
Zr337       O347   2.332       .  S
Zr337       O345   2.343   1_655  S
O338       Zr364   2.341   1_554  S
O338       Zr367   2.331   1_554  S
O339       Zr365   2.344   1_454  S
O339       Zr366   2.337   1_554  S
C340       C2714   1.477       .  S
C341       C2161   1.486       .  S
C342        C945   1.504       .  S
C343        C977   1.503       .  S
H344        O345   0.967       .  S
O345       Zr364   2.353   1_454  S
O345       Zr366   2.345   1_554  S
H346        O347   0.967       .  S
O347       Zr365   2.341   1_554  S
O347       Zr367   2.329   1_554  S
O348       Zr364   2.466       .  S
O348        C371   1.298       .  A
O349       Zr365   2.455       .  S
O349        C372   1.295       .  A
O350       Zr366   2.412       .  S
O350        C373   1.289       .  A
O351       Zr367   2.418   1_554  S
O351        C374   1.289       .  A
O352       Zr367   2.413       .  S
O352        C375   1.289       .  A
O353       Zr366   2.414       .  S
O353        C376   1.289       .  A
O354       Zr368   2.444   1_455  S
O354        C377   1.291       .  A
O355       Zr368   2.451       .  S
O355        C378   1.294       .  A
O356       Zr366   2.454       .  S
O356        C377   1.295       .  A
O357       Zr367   2.440       .  S
O357        C378   1.291       .  A
O358       Zr364   2.462   1_455  S
O358        C373   1.296       .  A
O359       Zr365   2.454   1_455  S
O359        C376   1.295       .  A
O360       Zr365   2.437       .  S
O360        C375   1.291       .  A
O361       Zr364   2.456   1_554  S
O361        C374   1.296       .  A
O362       Zr368   2.404       .  S
O362        C371   1.285       .  A
O363       Zr368   2.411       .  S
O363        C372   1.288       .  A
Zr364       O370   2.345   1_655  S
Zr364       O382   2.352       .  S
Zr365       O369   2.342       .  S
Zr365       O380   2.341   1_655  S
Zr366       O370   2.339       .  S
Zr366       O380   2.340       .  S
Zr367       O369   2.330       .  S
Zr367       O382   2.334       .  S
Zr368       O369   2.329       .  S
Zr368       O370   2.337   1_655  S
Zr368       O382   2.342       .  S
Zr368       O380   2.338   1_655  S
C371       C2298   1.476       .  S
C372       C2234   1.488       .  S
C373        C817   1.494       .  S
C374        C753   1.475       .  S
C375        C785   1.480       .  S
C376        C849   1.488       .  S
C377        C913   1.506       .  S
C378        C881   1.498       .  S
H379        O380   0.967       .  S
H381        O382   0.964       .  S
N383        C387   1.358       .  A
N383        C384   1.359       .  A
N383        C986   1.447       .  S
C384        C385   1.381       .  A
C384       C2522   1.473       .  S
C385        C386   1.367       .  A
C385        H388   1.082       .  S
C386        C387   1.382       .  A
C386        H389   1.082       .  S
C387        C721   1.474       .  S
N390        C394   1.354       .  A
N390        C391   1.357       .  A
N390        C954   1.446       .  S
C391        C392   1.384       .  A
C391        C689   1.472       .  S
C392        C393   1.369       .  A
C392        H395   1.082       .  S
C393        C394   1.379       .  A
C393        H396   1.082       .  S
C394       C2490   1.467       .  S
N397        C401   1.353       .  A
N397        C398   1.355       .  A
N397        C922   1.445       .  S
C398        C399   1.383       .  A
C398        C657   1.470       .  S
C399        C400   1.369       .  A
C399        H402   1.082       .  S
C400        C401   1.380       .  A
C400        H403   1.082       .  S
C401       C2554   1.462       .  S
N404        C408   1.358       .  A
N404        C405   1.359       .  A
N404        C890   1.446       .  S
C405        C406   1.380       .  A
C405       C2586   1.473       .  S
C406        C407   1.368       .  A
C406        H409   1.082       .  S
C407        C408   1.382       .  A
C407        H410   1.082       .  S
C408        C625   1.477       .  S
N411        C415   1.355       .  A
N411        C412   1.353       .  A
N411        C593   1.441       .  S
C412        C413   1.381       .  A
C412        C858   1.470       .  S
C413        C414   1.373       .  A
C413        H416   1.082   1_556  S
C414        C415   1.381       .  A
C414        H417   1.082       .  S
C415       C1242   1.471       .  S
O418       Zr454   2.459       .  S
O418        C429   1.296       .  A
O419       Zr453   2.466       .  S
O419        C430   1.298       .  A
O420       Zr426   2.453       .  S
O420        C431   1.295       .  A
O421       Zr426   2.457       .  S
O421        C432   1.296       .  A
O422       Zr456   2.440       .  S
O422        C432   1.291       .  A
O423       Zr455   2.430       .  S
O423        C431   1.289       .  A
O424       Zr426   2.407       .  S
O424        C430   1.287       .  A
O425       Zr426   2.416   1_554  S
O425        C429   1.287       .  A
Zr426       O427   2.334       .  S
Zr426       O428   2.334   1_556  S
Zr426       O436   2.341   1_556  S
Zr426       O434   2.346       .  S
O427       Zr453   2.348       .  S
O427       Zr456   2.332       .  S
O428       Zr454   2.349       .  S
O428       Zr455   2.337   1_554  S
C429       C1105   1.478       .  S
C430       C1018   1.476       .  S
C431        C602   1.498       .  S
C432        C506   1.500       .  S
H433        O434   0.963       .  S
O434       Zr453   2.345       .  S
O434       Zr455   2.335       .  S
H435        O436   0.965       .  S
O436       Zr454   2.350       .  S
O436       Zr456   2.340   1_554  S
O437       Zr453   2.464       .  S
O437        C460   1.297       .  A
O438       Zr454   2.464       .  S
O438        C461   1.298       .  A
O439       Zr455   2.407       .  S
O439        C462   1.286       .  A
O440       Zr456   2.421       .  S
O440        C463   1.288       .  A
O441       Zr456   2.415   1_554  S
O441        C464   1.287       .  A
O442       Zr455   2.397   1_554  S
O442        C465   1.283       .  A
O443       Zr457   2.450       .  S
O443        C466   1.294       .  A
O444       Zr457   2.428       .  S
O444        C467   1.289       .  A
O445       Zr455   2.443       .  S
O445        C466   1.291       .  A
O446       Zr456   2.442       .  S
O446        C467   1.293       .  A
O447       Zr453   2.474       .  S
O447        C462   1.299       .  A
O448       Zr454   2.455       .  S
O448        C465   1.296       .  A
O449       Zr454   2.464       .  S
O449        C464   1.298       .  A
O450       Zr453   2.459       .  S
O450        C463   1.297       .  A
O451       Zr457   2.405       .  S
O451        C460   1.287       .  A
O452       Zr457   2.410   1_554  S
O452        C461   1.286       .  A
Zr453       O459   2.346       .  S
Zr453       O471   2.355       .  S
Zr454       O458   2.344       .  S
Zr454       O469   2.346       .  S
Zr455       O459   2.327       .  S
Zr455       O469   2.328   1_556  S
Zr456       O458   2.333   1_556  S
Zr456       O471   2.338       .  S
Zr457       O458   2.333   1_556  S
Zr457       O459   2.332       .  S
Zr457       O471   2.343       .  S
Zr457       O469   2.329   1_556  S
C460       C1050   1.481       .  S
C461       C1073   1.485       .  S
C462        C666   1.481       .  S
C463        C634   1.487       .  S
C464        C730   1.487       .  S
C465        C698   1.483       .  S
C466        C529   1.503       .  S
C467        C570   1.487       .  S
H468        O469   0.965       .  S
H470        O471   0.965       .  S
N472        C476   1.358       .  A
N472        C473   1.357       .  A
N472        C561   1.444       .  S
C473        C474   1.380       .  A
C473       C1210   1.474       .  S
C474        C475   1.368       .  A
C474        H477   1.082       .  S
C475        C476   1.383       .  A
C475        H478   1.082       .  S
C476        C762   1.477       .  S
N479        C483   1.358       .  A
N479        C480   1.359       .  A
N479        C538   1.448       .  S
C480        C481   1.382       .  A
C480       C1178   1.473       .  S
C481        C482   1.367       .  A
C481        H484   1.082       .  S
C482        C483   1.380       .  A
C482        H485   1.082       .  S
C483        C826   1.473   1_554  S
N486        C490   1.358       .  A
N486        C487   1.357       .  A
N486        C497   1.448       .  S
C487        C488   1.380       .  A
C487        C794   1.469       .  S
C488        C489   1.368       .  A
C488        H491   1.082       .  S
C489        C490   1.381       .  A
C489        H492   1.082       .  S
C490       C1146   1.472       .  S
C493        C494   1.402       .  A
C493        C498   1.406       .  A
C493        H503   1.084       .  S
C494        C495   1.411   1_554  A
C494        C499   1.488   1_554  S
C495        C496   1.406       .  A
C495        C500   1.506       .  S
C496        C497   1.405   1_556  A
C496        H501   1.083       .  S
C497        C498   1.417       .  A
C498        C502   1.505       .  S
C499        C504   1.409       .  A
C499        C508   1.400   1_556  A
C500        H516   1.110       .  S
C500        H517   1.110       .  S
C500        H518   1.111       .  S
C502        H513   1.110       .  S
C502        H514   1.111       .  S
C502        H515   1.106       .  S
C504        C505   1.407       .  A
C504        C509   1.506       .  S
C505        C506   1.410       .  A
C505        H510   1.084       .  S
C506        C507   1.425   1_556  A
C507        C508   1.408       .  A
C507        C511   1.509       .  S
C508        H512   1.084       .  S
C509        H519   1.111       .  S
C509        H520   1.110       .  S
C509        H521   1.110       .  S
C511        H522   1.111       .  S
C511        H523   1.111       .  S
C511        H524   1.109       .  S
C525        C526   1.400   1_554  A
C525        C530   1.408       .  A
C525        H535   1.084       .  S
C526        C527   1.410       .  A
C526        C531   1.490       .  S
C527        C528   1.408       .  A
C527        C532   1.506       .  S
C528        C529   1.411       .  A
C528        H533   1.084       .  S
C529        C530   1.426   1_556  A
C530        C534   1.510       .  S
C531        C536   1.412       .  A
C531        C540   1.401   1_556  A
C532        H548   1.110       .  S
C532        H549   1.110       .  S
C532        H550   1.111       .  S
C534        H545   1.109   1_554  S
C534        H546   1.111       .  S
C534        H547   1.111       .  S
C536        C537   1.408       .  A
C536        C541   1.505       .  S
C537        C538   1.405   1_556  A
C537        H542   1.083       .  S
C538        C539   1.418       .  A
C539        C540   1.406       .  A
C539        C543   1.505       .  S
C540        H544   1.084       .  S
C541        H551   1.111       .  S
C541        H552   1.110       .  S
C541        H553   1.110       .  S
C543        H554   1.111       .  S
C543        H555   1.104       .  S
C543        H556   1.110       .  S
C557        C558   1.401       .  A
C557        C562   1.403       .  A
C557        H567   1.085       .  S
C558        C559   1.410   1_554  A
C558        C563   1.481       .  S
C559        C560   1.403       .  A
C559        C564   1.507       .  S
C560        C561   1.404   1_556  A
C560        H565   1.083       .  S
C561        C562   1.417       .  A
C562        C566   1.506       .  S
C563        C568   1.409   1_554  A
C563        C572   1.400       .  A
C564        H580   1.110       .  S
C564        H581   1.109       .  S
C564        H582   1.111       .  S
C566        H577   1.110       .  S
C566        H578   1.111       .  S
C566        H579   1.106       .  S
C568        C569   1.403       .  A
C568        C573   1.507       .  S
C569        C570   1.407       .  A
C569        H574   1.084       .  S
C570        C571   1.422   1_556  A
C571        C572   1.405       .  A
C571        C575   1.510       .  S
C572        H576   1.084       .  S
C573        H583   1.111       .  S
C573        H584   1.110       .  S
C573        H585   1.109       .  S
C575        H586   1.111       .  S
C575        H587   1.111       .  S
C575        H588   1.109       .  S
C589        C590   1.402       .  A
C589        C594   1.406       .  A
C589        H599   1.084       .  S
C590        C591   1.411   1_556  A
C590        C595   1.483       .  S
C591        C592   1.403       .  A
C591        C596   1.507       .  S
C592        C593   1.402   1_554  A
C592        H597   1.083       .  S
C593        C594   1.415       .  A
C594        C598   1.504       .  S
C595        C600   1.408       .  A
C595        C604   1.399       .  A
C596        H612   1.110       .  S
C596        H613   1.110       .  S
C596        H614   1.111       .  S
C598        H609   1.110       .  S
C598        H610   1.110       .  S
C598        H611   1.106       .  S
C600        C601   1.405       .  A
C600        C605   1.507   1_556  S
C601        C602   1.410       .  A
C601        H606   1.083   1_556  S
C602        C603   1.427       .  A
C603        C604   1.406       .  A
C603        C607   1.510       .  S
C604        H608   1.084       .  S
C605        H615   1.111       .  S
C605        H616   1.110   1_554  S
C605        H617   1.110       .  S
C607        H618   1.111       .  S
C607        H619   1.111       .  S
C607        H620   1.109       .  S
C621        C622   1.398       .  A
C621        C626   1.399       .  A
C621        H631   1.085       .  S
C622        C623   1.411       .  A
C622        C627   1.477       .  S
C623        C624   1.405       .  A
C623        C628   1.505       .  S
C624        C625   1.403       .  A
C624        H629   1.084       .  S
C625        C626   1.415       .  A
C626        C630   1.508       .  S
C627        C632   1.411       .  A
C627        C636   1.395       .  A
C628        H644   1.110       .  S
C628        H645   1.110       .  S
C628        H646   1.111       .  S
C630        H641   1.110       .  S
C630        H642   1.110       .  S
C630        H643   1.109       .  S
C632        C633   1.405       .  A
C632        C637   1.507       .  S
C633        C634   1.406       .  A
C633        H638   1.083       .  S
C634        C635   1.424       .  A
C635        C636   1.402       .  A
C635        C639   1.510       .  S
C636        H640   1.084       .  S
C637        H647   1.111       .  S
C637        H648   1.110       .  S
C637        H649   1.110       .  S
C639        H650   1.111       .  S
C639        H651   1.110       .  S
C639        H652   1.109       .  S
C653        C654   1.397       .  A
C653        C658   1.395       .  A
C653        H663   1.085       .  S
C654        C655   1.412       .  A
C654        C659   1.476       .  S
C655        C656   1.404       .  A
C655        C660   1.504       .  S
C656        C657   1.401       .  A
C656        H661   1.084       .  S
C657        C658   1.415       .  A
C658        C662   1.509       .  S
C659        C664   1.413       .  A
C659        C668   1.395       .  A
C660        H676   1.110       .  S
C660        H677   1.109       .  S
C660        H678   1.111       .  S
C662        H673   1.110       .  S
C662        H674   1.110       .  S
C662        H675   1.108       .  S
C664        C665   1.406       .  A
C664        C669   1.507       .  S
C665        C666   1.403       .  A
C665        H670   1.084       .  S
C666        C667   1.423       .  A
C667        C668   1.399       .  A
C667        C671   1.509       .  S
C668        H672   1.085       .  S
C669        H679   1.111       .  S
C669        H680   1.111       .  S
C669        H681   1.110       .  S
C671        H682   1.111       .  S
C671        H683   1.106       .  S
C671        H684   1.110       .  S
C685        C686   1.396       .  A
C685        C690   1.393       .  A
C685        H695   1.085       .  S
C686        C687   1.409       .  A
C686        C691   1.469       .  S
C687        C688   1.404       .  A
C687        C692   1.505       .  S
C688        C689   1.404       .  A
C688        H693   1.084       .  S
C689        C690   1.415       .  A
C690        C694   1.508       .  S
C691        C696   1.409       .  A
C691        C700   1.393       .  A
C692        H708   1.110       .  S
C692        H709   1.110       .  S
C692        H710   1.111       .  S
C694        H705   1.111       .  S
C694        H706   1.111       .  S
C694        H707   1.107       .  S
C696        C697   1.401       .  A
C696        C701   1.507       .  S
C697        C698   1.406       .  A
C697        H702   1.084       .  S
C698        C699   1.427       .  A
C699        C700   1.398       .  A
C699        C703   1.512       .  S
C700        H704   1.085       .  S
C701        H711   1.111       .  S
C701        H712   1.110       .  S
C701        H713   1.110       .  S
C703        H714   1.111       .  S
C703        H715   1.111       .  S
C703        H716   1.110       .  S
C717        C718   1.399       .  A
C717        C722   1.399       .  A
C717        H727   1.085       .  S
C718        C719   1.412       .  A
C718        C723   1.479       .  S
C719        C720   1.405       .  A
C719        C724   1.506       .  S
C720        C721   1.402       .  A
C720        H725   1.084       .  S
C721        C722   1.414       .  A
C722        C726   1.508       .  S
C723        C728   1.412       .  A
C723        C732   1.396       .  A
C724        H740   1.110       .  S
C724        H741   1.109       .  S
C724        H742   1.111       .  S
C726        H737   1.110       .  S
C726        H738   1.110       .  S
C726        H739   1.109       .  S
C728        C729   1.406       .  A
C728        C733   1.507       .  S
C729        C730   1.406       .  A
C729        H734   1.084       .  S
C730        C731   1.424       .  A
C731        C732   1.401       .  A
C731        C735   1.510       .  S
C732        H736   1.084       .  S
C733        H743   1.111       .  S
C733        H744   1.110       .  S
C733        H745   1.109       .  S
C735        H746   1.111       .  S
C735        H747   1.110       .  S
C735        H748   1.109       .  S
C749        C750   1.397       .  A
C749        C754   1.399       .  A
C749        H759   1.085       .  S
C750        C751   1.413   1_554  A
C750        C755   1.475       .  S
C751        C752   1.404       .  A
C751        C756   1.507       .  S
C752        C753   1.402   1_556  A
C752        H757   1.084       .  S
C753        C754   1.420       .  A
C754        C758   1.508       .  S
C755        C760   1.411   1_554  A
C755        C764   1.397       .  A
C756        H772   1.110       .  S
C756        H773   1.109       .  S
C756        H774   1.111       .  S
C758        H769   1.109       .  S
C758        H770   1.111       .  S
C758        H771   1.105       .  S
C760        C761   1.405   1_556  A
C760        C765   1.506       .  S
C761        C762   1.404       .  A
C761        H766   1.083   1_554  S
C762        C763   1.416       .  A
C763        C764   1.396       .  A
C763        C767   1.508       .  S
C764        H768   1.085       .  S
C765        H775   1.111       .  S
C765        H776   1.110       .  S
C765        H777   1.109       .  S
C767        H778   1.110       .  S
C767        H779   1.108       .  S
C767        H780   1.110       .  S
C781        C782   1.401       .  A
C781        C786   1.403       .  A
C781        H791   1.084       .  S
C782        C783   1.403   1_554  A
C782        C787   1.469       .  S
C783        C784   1.396       .  A
C783        C788   1.507       .  S
C784        C785   1.409       .  A
C784        H789   1.084       .  S
C785        C786   1.419   1_556  A
C786        C790   1.510       .  S
C787        C792   1.408   1_554  A
C787        C796   1.400       .  A
C788        H804   1.110       .  S
C788        H805   1.109       .  S
C788        H806   1.111       .  S
C790        H801   1.109       .  S
C790        H802   1.111       .  S
C790        H803   1.111       .  S
C792        C793   1.398       .  A
C792        C797   1.508       .  S
C793        C794   1.403   1_556  A
C793        H798   1.085       .  S
C794        C795   1.413       .  A
C795        C796   1.400       .  A
C795        C799   1.506       .  S
C796        H800   1.085       .  S
C797        H807   1.111       .  S
C797        H808   1.110       .  S
C797        H809   1.109       .  S
C799        H810   1.110       .  S
C799        H811   1.105       .  S
C799        H812   1.110       .  S
C813        C814   1.401   1_554  A
C813        C818   1.406       .  A
C813        H823   1.084       .  S
C814        C815   1.403       .  A
C814        C819   1.476       .  S
C815        C816   1.400       .  A
C815        C820   1.507       .  S
C816        C817   1.414       .  A
C816        H821   1.083       .  S
C817        C818   1.420   1_556  A
C818        C822   1.508       .  S
C819        C824   1.408       .  A
C819        C828   1.400   1_556  A
C820        H836   1.110       .  S
C820        H837   1.110       .  S
C820        H838   1.111       .  S
C822        H833   1.110   1_554  S
C822        H834   1.111       .  S
C822        H835   1.110       .  S
C824        C825   1.400       .  A
C824        C829   1.506       .  S
C825        C826   1.404       .  A
C825        H830   1.085       .  S
C826        C827   1.414   1_556  A
C827        C828   1.401       .  A
C827        C831   1.506       .  S
C828        H832   1.085       .  S
C829        H839   1.111       .  S
C829        H840   1.110       .  S
C829        H841   1.110       .  S
C831        H842   1.111       .  S
C831        H843   1.103       .  S
C831        H844   1.110       .  S
C845        C846   1.402   1_554  A
C845        C850   1.405       .  A
C845        H855   1.084       .  S
C846        C847   1.405       .  A
C846        C851   1.477       .  S
C847        C848   1.399       .  A
C847        C852   1.507       .  S
C848        C849   1.411       .  A
C848        H853   1.084       .  S
C849        C850   1.419   1_556  A
C850        C854   1.507       .  S
C851        C856   1.411   1_556  A
C851        C860   1.399       .  A
C852        H868   1.110       .  S
C852        H869   1.110       .  S
C852        H870   1.111       .  S
C854        H865   1.110       .  S
C854        H866   1.111       .  S
C854        H867   1.110       .  S
C856        C857   1.404       .  A
C856        C861   1.506       .  S
C857        C858   1.402   1_554  A
C857        H862   1.084       .  S
C858        C859   1.412       .  A
C859        C860   1.398       .  A
C859        C863   1.507       .  S
C860        H864   1.085       .  S
C861        H871   1.111       .  S
C861        H872   1.110       .  S
C861        H873   1.111       .  S
C863        H874   1.110       .  S
C863        H875   1.107       .  S
C863        H876   1.110       .  S
C877        C878   1.399       .  A
C877        C882   1.408       .  A
C877        H887   1.084       .  S
C878        C879   1.409       .  A
C878        C883   1.486       .  S
C879        C880   1.407       .  A
C879        C884   1.506       .  S
C880        C881   1.410       .  A
C880        H885   1.083       .  S
C881        C882   1.424       .  A
C882        C886   1.509       .  S
C883        C888   1.411       .  A
C883        C892   1.402       .  A
C884        H900   1.110       .  S
C884        H901   1.109       .  S
C884        H902   1.107       .  S
C886        H897   1.110       .  S
C886        H898   1.111       .  S
C886        H899   1.111       .  S
C888        C889   1.405       .  A
C888        C893   1.506       .  S
C889        C890   1.405       .  A
C889        H894   1.083       .  S
C890        C891   1.416       .  A
C891        C892   1.405       .  A
C891        C895   1.505       .  S
C892        H896   1.084       .  S
C893        H903   1.111       .  S
C893        H904   1.110       .  S
C893        H905   1.109       .  S
C895        H906   1.110       .  S
C895        H907   1.107       .  S
C895        H908   1.111       .  S
C909        C910   1.399       .  A
C909        C914   1.408       .  A
C909        H919   1.084       .  S
C910        C911   1.410       .  A
C910        C915   1.490       .  S
C911        C912   1.409       .  A
C911        C916   1.507       .  S
C912        C913   1.412       .  A
C912        H917   1.084       .  S
C913        C914   1.427       .  A
C914        C918   1.510       .  S
C915        C920   1.412       .  A
C915        C924   1.404       .  A
C916        H932   1.110       .  S
C916        H933   1.110       .  S
C916        H934   1.111       .  S
C918        H929   1.110       .  S
C918        H930   1.111       .  S
C918        H931   1.111       .  S
C920        C921   1.406       .  A
C920        C925   1.506       .  S
C921        C922   1.404       .  A
C921        H926   1.083       .  S
C922        C923   1.415       .  A
C923        C924   1.408       .  A
C923        C927   1.504       .  S
C924        H928   1.084       .  S
C925        H935   1.111       .  S
C925        H936   1.110       .  S
C925        H937   1.110       .  S
C927        H938   1.110       .  S
C927        H939   1.105       .  S
C927        H940   1.110       .  S
C941        C942   1.400       .  A
C941        C946   1.409       .  A
C941        H951   1.084       .  S
C942        C943   1.408       .  A
C942        C947   1.489       .  S
C943        C944   1.407       .  A
C943        C948   1.506       .  S
C944        C945   1.412       .  A
C944        H949   1.083       .  S
C945        C946   1.426       .  A
C946        C950   1.509       .  S
C947        C952   1.411       .  A
C947        C956   1.402       .  A
C948        H964   1.110       .  S
C948        H965   1.110       .  S
C948        H966   1.111       .  S
C950        H961   1.110       .  S
C950        H962   1.111       .  S
C950        H963   1.111       .  S
C952        C953   1.406       .  A
C952        C957   1.506       .  S
C953        C954   1.404       .  A
C953        H958   1.083       .  S
C954        C955   1.417       .  A
C955        C956   1.407       .  A
C955        C959   1.505       .  S
C956        H960   1.084       .  S
C957        H967   1.111       .  S
C957        H968   1.110       .  S
C957        H969   1.110       .  S
C959        H970   1.110       .  S
C959        H971   1.105       .  S
C959        H972   1.110       .  S
C973        C974   1.400       .  A
C973        C978   1.409       .  A
C973        H983   1.084       .  S
C974        C975   1.408       .  A
C974        C979   1.489       .  S
C975        C976   1.405       .  A
C975        C980   1.506       .  S
C976        C977   1.410       .  A
C976        H981   1.082       .  S
C977        C978   1.428       .  A
C978        C982   1.511       .  S
C979        C984   1.412       .  A
C979        C988   1.403       .  A
C980        H996   1.110       .  S
C980        H997   1.110       .  S
C980        H998   1.111       .  S
C982        H993   1.108       .  S
C982        H994   1.111       .  S
C982        H995   1.111       .  S
C984        C985   1.407       .  A
C984        C989   1.506       .  S
C985        C986   1.404       .  A
C985        H990   1.083       .  S
C986        C987   1.416       .  A
C987        C988   1.408       .  A
C987        C991   1.504       .  S
C988        H992   1.084       .  S
C989        H999   1.110       .  S
C989       H1000   1.110       .  S
C989       H1001   1.110       .  S
C991       H1002   1.110       .  S
C991       H1003   1.106       .  S
C991       H1004   1.110       .  S
C1005      C1006   1.398       .  A
C1005      C1010   1.398       .  A
C1005      H1015   1.085       .  S
C1006      C1007   1.411       .  A
C1006      C1011   1.478       .  S
C1007      C1008   1.405       .  A
C1007      C1012   1.505       .  S
C1008      C1009   1.403       .  A
C1008      H1013   1.084       .  S
C1009      C1010   1.416       .  A
C1010      C1014   1.508       .  S
C1011      C1016   1.407       .  A
C1011      C1020   1.403       .  A
C1012      H1028   1.110       .  S
C1012      H1029   1.111       .  S
C1012      H1030   1.111       .  S
C1014      H1025   1.110       .  S
C1014      H1026   1.110       .  S
C1014      H1027   1.108       .  S
C1016      C1017   1.401       .  A
C1016      C1021   1.507       .  S
C1017      C1018   1.408       .  A
C1017      H1022   1.085       .  S
C1018      C1019   1.415       .  A
C1019      C1020   1.403       .  A
C1019      C1023   1.509       .  S
C1020      H1024   1.085       .  S
C1021      H1031   1.110       .  S
C1021      H1032   1.110       .  S
C1021      H1033   1.110       .  S
C1023      H1034   1.110       .  S
C1023      H1035   1.107       .  S
C1023      H1036   1.111       .  S
C1037      C1038   1.400       .  A
C1037      C1042   1.398       .  A
C1037      H1047   1.084       .  S
C1038      C1039   1.412       .  A
C1038      C1043   1.477       .  S
C1039      C1040   1.402       .  A
C1039      C1044   1.507       .  S
C1040      C1041   1.400       .  A
C1040      H1045   1.084       .  S
C1041      C1042   1.413       .  A
C1042      C1046   1.507       .  S
C1043      C1048   1.406       .  A
C1043      C1052   1.403       .  A
C1044      H1060   1.109       .  S
C1044      H1061   1.110       .  S
C1044      H1062   1.111       .  S
C1046      H1057   1.110       .  S
C1046      H1058   1.110       .  S
C1046      H1059   1.106       .  S
C1048      C1049   1.399       .  A
C1048      C1053   1.508       .  S
C1049      C1050   1.411       .  A
C1049      H1054   1.085       .  S
C1050      C1051   1.418       .  A
C1051      C1052   1.403       .  A
C1051      C1055   1.509       .  S
C1052      H1056   1.085       .  S
C1053      H1063   1.111       .  S
C1053      H1064   1.109       .  S
C1053      H1065   1.111       .  S
C1055      H1066   1.110       .  S
C1055      H1067   1.104       .  S
C1055      H1068   1.111       .  S
C1069      C1070   1.396       .  A
C1069      C1074   1.401       .  A
C1069      H1079   1.084       .  S
C1070      C1071   1.411       .  A
C1070      C1075   1.476       .  S
C1071      C1072   1.404       .  A
C1071      C1076   1.507       .  S
C1072      C1073   1.405       .  A
C1072      H1077   1.084       .  S
C1073      C1074   1.425       .  A
C1074      C1078   1.511       .  S
C1075      C1080   1.411       .  A
C1075      C1084   1.399       .  A
C1076      H1092   1.110       .  S
C1076      H1093   1.109       .  S
C1076      H1094   1.111       .  S
C1078      H1089   1.109       .  S
C1078      H1090   1.111       .  S
C1078      H1091   1.111       .  S
C1080      C1081   1.403       .  A
C1080      C1085   1.506       .  S
C1081      C1082   1.403       .  A
C1081      H1086   1.084       .  S
C1082      C1083   1.415       .  A
C1083      C1084   1.397       .  A
C1083      C1087   1.507       .  S
C1084      H1088   1.085       .  S
C1085      H1095   1.111       .  S
C1085      H1096   1.110       .  S
C1085      H1097   1.109       .  S
C1087      H1098   1.111       .  S
C1087      H1099   1.108       .  S
C1087      H1100   1.111       .  S
C1101      C1102   1.398       .  A
C1101      C1106   1.402       .  A
C1101      H1111   1.084       .  S
C1102      C1103   1.413       .  A
C1102      C1107   1.478       .  S
C1103      C1104   1.405       .  A
C1103      C1108   1.508       .  S
C1104      C1105   1.403       .  A
C1104      H1109   1.084       .  S
C1105      C1106   1.419       .  A
C1106      C1110   1.510       .  S
C1107      C1112   1.413       .  A
C1107      C1116   1.399       .  A
C1108      H1124   1.110       .  S
C1108      H1125   1.108       .  S
C1108      H1126   1.111       .  S
C1110      H1121   1.111       .  S
C1110      H1122   1.111       .  S
C1110      H1123   1.109       .  S
C1112      C1113   1.405       .  A
C1112      C1117   1.506       .  S
C1113      C1114   1.401       .  A
C1113      H1118   1.084       .  S
C1114      C1115   1.414       .  A
C1115      C1116   1.399       .  A
C1115      C1119   1.508       .  S
C1116      H1120   1.085       .  S
C1117      H1127   1.111       .  S
C1117      H1128   1.110       .  S
C1117      H1129   1.108       .  S
C1119      H1130   1.110       .  S
C1119      H1131   1.109       .  S
C1119      H1132   1.111       .  S
C1133      C1134   1.401   1_556  A
C1133      C1138   1.403       .  A
C1133      H1143   1.084       .  S
C1134      C1135   1.403       .  A
C1134      C1139   1.471       .  S
C1135      C1136   1.397       .  A
C1135      C1140   1.507       .  S
C1136      C1137   1.410       .  A
C1136      H1141   1.084       .  S
C1137      C1138   1.419   1_554  A
C1138      C1142   1.509       .  S
C1139      C1144   1.407       .  A
C1139      C1148   1.400   1_554  A
C1140      H1156   1.110       .  S
C1140      H1157   1.110       .  S
C1140      H1158   1.111       .  S
C1142      H1153   1.109       .  S
C1142      H1154   1.111       .  S
C1142      H1155   1.110       .  S
C1144      C1145   1.397       .  A
C1144      C1149   1.507       .  S
C1145      C1146   1.404       .  A
C1145      H1150   1.085       .  S
C1146      C1147   1.415   1_554  A
C1147      C1148   1.401       .  A
C1147      C1151   1.506       .  S
C1148      H1152   1.085       .  S
C1149      H1159   1.111       .  S
C1149      H1160   1.110       .  S
C1149      H1161   1.110       .  S
C1151      H1162   1.110       .  S
C1151      H1163   1.105       .  S
C1151      H1164   1.111       .  S
C1165      C1166   1.395       .  A
C1165      C1170   1.400       .  A
C1165      H1175   1.084       .  S
C1166      C1167   1.410   1_554  A
C1166      C1171   1.474       .  S
C1167      C1168   1.404       .  A
C1167      C1172   1.507       .  S
C1168      C1169   1.405   1_556  A
C1168      H1173   1.084       .  S
C1169      C1170   1.424       .  A
C1170      C1174   1.511       .  S
C1171      C1176   1.411   1_554  A
C1171      C1180   1.397       .  A
C1172      H1188   1.110       .  S
C1172      H1189   1.110       .  S
C1172      H1190   1.111       .  S
C1174      H1185   1.109       .  S
C1174      H1186   1.111       .  S
C1174      H1187   1.111       .  S
C1176      C1177   1.404       .  A
C1176      C1181   1.506       .  S
C1177      C1178   1.402   1_556  A
C1177      H1182   1.084       .  S
C1178      C1179   1.416       .  A
C1179      C1180   1.397       .  A
C1179      C1183   1.509       .  S
C1180      H1184   1.085       .  S
C1181      H1191   1.111       .  S
C1181      H1192   1.110       .  S
C1181      H1193   1.110       .  S
C1183      H1194   1.110       .  S
C1183      H1195   1.107       .  S
C1183      H1196   1.110       .  S
C1197      C1198   1.401   1_554  A
C1197      C1202   1.403       .  A
C1197      H1207   1.084       .  S
C1198      C1199   1.404       .  A
C1198      C1203   1.473       .  S
C1199      C1200   1.400       .  A
C1199      C1204   1.507       .  S
C1200      C1201   1.411       .  A
C1200      H1205   1.084       .  S
C1201      C1202   1.417   1_556  A
C1202      C1206   1.508       .  S
C1203      C1208   1.408       .  A
C1203      C1212   1.401   1_556  A
C1204      H1220   1.110       .  S
C1204      H1221   1.109       .  S
C1204      H1222   1.111       .  S
C1206      H1217   1.110       .  S
C1206      H1218   1.111       .  S
C1206      H1219   1.111       .  S
C1208      C1209   1.398       .  A
C1208      C1213   1.507       .  S
C1209      C1210   1.403   1_556  A
C1209      H1214   1.084       .  S
C1210      C1211   1.415       .  A
C1211      C1212   1.402       .  A
C1211      C1215   1.506       .  S
C1212      H1216   1.085       .  S
C1213      H1223   1.111       .  S
C1213      H1224   1.110       .  S
C1213      H1225   1.109       .  S
C1215      H1226   1.110       .  S
C1215      H1227   1.104       .  S
C1215      H1228   1.110       .  S
C1229      C1230   1.399       .  A
C1229      C1234   1.404       .  A
C1229      H1239   1.084   1_556  S
C1230      C1231   1.404       .  A
C1230      C1235   1.476       .  S
C1231      C1232   1.400       .  A
C1231      C1236   1.507       .  S
C1232      C1233   1.413       .  A
C1232      H1237   1.082       .  S
C1233      C1234   1.423       .  A
C1234      C1238   1.509   1_556  S
C1235      C1240   1.409       .  A
C1235      C1244   1.401   1_556  A
C1236      H1252   1.110       .  S
C1236      H1253   1.110       .  S
C1236      H1254   1.111       .  S
C1238      H1249   1.110   1_554  S
C1238      H1250   1.111       .  S
C1238      H1251   1.110       .  S
C1240      C1241   1.400       .  A
C1240      C1245   1.507       .  S
C1241      C1242   1.403       .  A
C1241      H1246   1.084       .  S
C1242      C1243   1.413   1_556  A
C1243      C1244   1.402       .  A
C1243      C1247   1.507       .  S
C1244      H1248   1.084       .  S
C1245      H1255   1.111       .  S
C1245      H1256   1.110       .  S
C1245      H1257   1.110       .  S
C1247      H1258   1.110       .  S
C1247      H1259   1.106       .  S
C1247      H1260   1.110       .  S
C1261      C1262   1.402       .  A
C1261      C1266   1.409       .  A
C1261      H1271   1.084       .  S
C1262      C1263   1.412       .  A
C1262      C1267   1.493       .  S
C1263      C1264   1.409       .  A
C1263      C1268   1.506       .  S
C1264      C1265   1.410       .  A
C1264      H1269   1.084       .  S
C1265      C1266   1.422       .  A
C1266      C1270   1.508       .  S
C1267      C1272   1.413       .  A
C1267      C1276   1.404       .  A
C1268      H1284   1.110       .  S
C1268      H1285   1.111       .  S
C1268      H1286   1.111       .  S
C1270      H1281   1.111       .  S
C1270      H1282   1.109       .  S
C1270      H1283   1.111       .  S
C1272      C1273   1.407       .  A
C1272      C1277   1.506       .  S
C1273      C1274   1.404       .  A
C1273      H1278   1.083       .  S
C1274      C1275   1.415       .  A
C1275      C1276   1.408       .  A
C1275      C1279   1.505       .  S
C1276      H1280   1.084       .  S
C1277      H1287   1.111       .  S
C1277      H1288   1.110       .  S
C1277      H1289   1.110       .  S
C1279      H1290   1.110       .  S
C1279      H1291   1.107       .  S
C1279      H1292   1.111       .  S
C1293      C1294   1.398       .  A
C1293      C1298   1.405       .  A
C1293      H1303   1.084       .  S
C1294      C1295   1.407       .  A
C1294      C1299   1.479       .  S
C1295      C1296   1.402       .  A
C1295      C1300   1.507       .  S
C1296      C1297   1.412       .  A
C1296      H1301   1.083       .  S
C1297      C1298   1.426       .  A
C1298      C1302   1.510       .  S
C1299      C1304   1.410       .  A
C1299      C1308   1.401       .  A
C1300      H1316   1.110       .  S
C1300      H1317   1.110       .  S
C1300      H1318   1.111       .  S
C1302      H1313   1.110       .  S
C1302      H1314   1.111       .  S
C1302      H1315   1.111       .  S
C1304      C1305   1.401       .  A
C1304      C1309   1.507       .  S
C1305      C1306   1.402       .  A
C1305      H1310   1.083       .  S
C1306      C1307   1.413       .  A
C1307      C1308   1.404       .  A
C1307      C1311   1.503       .  S
C1308      H1312   1.084       .  S
C1309      H1319   1.111       .  S
C1309      H1320   1.110       .  S
C1309      H1321   1.110       .  S
C1311      H1322   1.110       .  S
C1311      H1323   1.105       .  S
C1311      H1324   1.110       .  S
C1325      C1326   1.400       .  A
C1325      C1330   1.409       .  A
C1325      H1335   1.084       .  S
C1326      C1327   1.411       .  A
C1326      C1331   1.492       .  S
C1327      C1328   1.408       .  A
C1327      C1332   1.506       .  S
C1328      C1329   1.409       .  A
C1328      H1333   1.084       .  S
C1329      C1330   1.426       .  A
C1330      C1334   1.510       .  S
C1331      C1336   1.412       .  A
C1331      C1340   1.403       .  A
C1332      H1348   1.110       .  S
C1332      H1349   1.109       .  S
C1332      H1350   1.111       .  S
C1334      H1345   1.111       .  S
C1334      H1346   1.111       .  S
C1334      H1347   1.109       .  S
C1336      C1337   1.407       .  A
C1336      C1341   1.506       .  S
C1337      C1338   1.405       .  A
C1337      H1342   1.083       .  S
C1338      C1339   1.417       .  A
C1339      C1340   1.408       .  A
C1339      C1343   1.504       .  S
C1340      H1344   1.084       .  S
C1341      H1351   1.111       .  S
C1341      H1352   1.110       .  S
C1341      H1353   1.109       .  S
C1343      H1354   1.110       .  S
C1343      H1355   1.105       .  S
C1343      H1356   1.110       .  S
C1357      C1358   1.398       .  A
C1357      C1362   1.407       .  A
C1357      H1367   1.084       .  S
C1358      C1359   1.409       .  A
C1358      C1363   1.486       .  S
C1359      C1360   1.406       .  A
C1359      C1364   1.506       .  S
C1360      C1361   1.410       .  A
C1360      H1365   1.083       .  S
C1361      C1362   1.429       .  A
C1362      C1366   1.511       .  S
C1363      C1368   1.413       .  A
C1363      C1372   1.400       .  A
C1364      H1380   1.110       .  S
C1364      H1381   1.110       .  S
C1364      H1382   1.111       .  S
C1366      H1377   1.111       .  S
C1366      H1378   1.111       .  S
C1366      H1379   1.110       .  S
C1368      C1369   1.409       .  A
C1368      C1373   1.506       .  S
C1369      C1370   1.404       .  A
C1369      H1374   1.083       .  S
C1370      C1371   1.413       .  A
C1371      C1372   1.403       .  A
C1371      C1375   1.504       .  S
C1372      H1376   1.084       .  S
C1373      H1383   1.111       .  S
C1373      H1384   1.110       .  S
C1373      H1385   1.110       .  S
C1375      H1386   1.106       .  S
C1375      H1387   1.110       .  S
C1375      H1388   1.111       .  S
C1389      C1390   1.398   1_545  A
C1389      C1394   1.401       .  A
C1389      H1399   1.085       .  S
C1390      C1391   1.411       .  A
C1390      C1395   1.472       .  S
C1391      C1392   1.400       .  A
C1391      C1396   1.507       .  S
C1392      C1393   1.401       .  A
C1392      H1397   1.084       .  S
C1393      C1394   1.420   1_565  A
C1394      C1398   1.510       .  S
C1395      C1400   1.411       .  A
C1395      C1404   1.396   1_565  A
C1396      H1412   1.110       .  S
C1396      H1413   1.110       .  S
C1396      H1414   1.111       .  S
C1398      H1409   1.110       .  S
C1398      H1410   1.111       .  S
C1398      H1411   1.107       .  S
C1400      C1401   1.406       .  A
C1400      C1405   1.505       .  S
C1401      C1402   1.403       .  A
C1401      H1406   1.084       .  S
C1402      C1403   1.416   1_565  A
C1403      C1404   1.394       .  A
C1403      C1407   1.509       .  S
C1404      H1408   1.085       .  S
C1405      H1415   1.111       .  S
C1405      H1416   1.110       .  S
C1405      H1417   1.110       .  S
C1407      H1418   1.110       .  S
C1407      H1419   1.107       .  S
C1407      H1420   1.110       .  S
C1421      C1422   1.403       .  A
C1421      C1426   1.405       .  A
C1421      H1431   1.084       .  S
C1422      C1423   1.409   1_565  A
C1422      C1427   1.478       .  S
C1423      C1424   1.399       .  A
C1423      C1428   1.507       .  S
C1424      C1425   1.403   1_545  A
C1424      H1429   1.084       .  S
C1425      C1426   1.413       .  A
C1426      C1430   1.507       .  S
C1427      C1432   1.405   1_565  A
C1427      C1436   1.402       .  A
C1428      H1444   1.110       .  S
C1428      H1445   1.110       .  S
C1428      H1446   1.111       .  S
C1430      H1441   1.110       .  S
C1430      H1442   1.110       .  S
C1430      H1443   1.107       .  S
C1432      C1433   1.401       .  A
C1432      C1437   1.507       .  S
C1433      C1434   1.411   1_545  A
C1433      H1438   1.084       .  S
C1434      C1435   1.420       .  A
C1435      C1436   1.405       .  A
C1435      C1439   1.509       .  S
C1436      H1440   1.084       .  S
C1437      H1447   1.111       .  S
C1437      H1448   1.110   1_545  S
C1437      H1449   1.110       .  S
C1439      H1450   1.111       .  S
C1439      H1451   1.111       .  S
C1439      H1452   1.110       .  S
C1453      C1454   1.401   1_545  A
C1453      C1458   1.401       .  A
C1453      H1463   1.085       .  S
C1454      C1455   1.408       .  A
C1454      C1459   1.470       .  S
C1455      C1456   1.396       .  A
C1455      C1460   1.508       .  S
C1456      C1457   1.403       .  A
C1456      H1461   1.085       .  S
C1457      C1458   1.414   1_565  A
C1458      C1462   1.506       .  S
C1459      C1464   1.404       .  A
C1459      C1468   1.402   1_565  A
C1460      H1476   1.110       .  S
C1460      H1477   1.108       .  S
C1460      H1478   1.111       .  S
C1462      H1473   1.111       .  S
C1462      H1474   1.111       .  S
C1462      H1475   1.105       .  S
C1464      C1465   1.398       .  A
C1464      C1469   1.507       .  S
C1465      C1466   1.408       .  A
C1465      H1470   1.085       .  S
C1466      C1467   1.416   1_565  A
C1467      C1468   1.401       .  A
C1467      C1471   1.509       .  S
C1468      H1472   1.085       .  S
C1469      H1479   1.111       .  S
C1469      H1480   1.110       .  S
C1469      H1481   1.108       .  S
C1471      H1482   1.111       .  S
C1471      H1483   1.105       .  S
C1471      H1484   1.110       .  S
C1485      C1486   1.399       .  A
C1485      C1490   1.398       .  A
C1485      H1495   1.085       .  S
C1486      C1487   1.411       .  A
C1486      C1491   1.476       .  S
C1487      C1488   1.404       .  A
C1487      C1492   1.506       .  S
C1488      C1489   1.404       .  A
C1488      H1493   1.083       .  S
C1489      C1490   1.415       .  A
C1490      C1494   1.508       .  S
C1491      C1496   1.413       .  A
C1491      C1500   1.395       .  A
C1492      H1508   1.110       .  S
C1492      H1509   1.108       .  S
C1492      H1510   1.111       .  S
C1494      H1505   1.110       .  S
C1494      H1506   1.111       .  S
C1494      H1507   1.108       .  S
C1496      C1497   1.406       .  A
C1496      C1501   1.507       .  S
C1497      C1498   1.405       .  A
C1497      H1502   1.084       .  S
C1498      C1499   1.423       .  A
C1499      C1500   1.399       .  A
C1499      C1503   1.510       .  S
C1500      H1504   1.085       .  S
C1501      H1511   1.111       .  S
C1501      H1512   1.110       .  S
C1501      H1513   1.108       .  S
C1503      H1514   1.111       .  S
C1503      H1515   1.110       .  S
C1503      H1516   1.109       .  S
C1517      C1518   1.396       .  A
C1517      C1522   1.400       .  A
C1517      H1527   1.084       .  S
C1518      C1519   1.411       .  A
C1518      C1523   1.472       .  S
C1519      C1520   1.401       .  A
C1519      C1524   1.507       .  S
C1520      C1521   1.402       .  A
C1520      H1525   1.084       .  S
C1521      C1522   1.421       .  A
C1522      C1526   1.511       .  S
C1523      C1528   1.411       .  A
C1523      C1532   1.397       .  A
C1524      H1540   1.110       .  S
C1524      H1541   1.110       .  S
C1524      H1542   1.111       .  S
C1526      H1537   1.109       .  S
C1526      H1538   1.111       .  S
C1526      H1539   1.110       .  S
C1528      C1529   1.403       .  A
C1528      C1533   1.506       .  S
C1529      C1530   1.402       .  A
C1529      H1534   1.084       .  S
C1530      C1531   1.416       .  A
C1531      C1532   1.396       .  A
C1531      C1535   1.508       .  S
C1532      H1536   1.085       .  S
C1533      H1543   1.111       .  S
C1533      H1544   1.110       .  S
C1533      H1545   1.110       .  S
C1535      H1546   1.111       .  S
C1535      H1547   1.107       .  S
C1535      H1548   1.110       .  S
C1549      C1550   1.402       .  A
C1549      C1554   1.406       .  A
C1549      H1559   1.084       .  S
C1550      C1551   1.406       .  A
C1550      C1555   1.475       .  S
C1551      C1552   1.398       .  A
C1551      C1556   1.507       .  S
C1552      C1553   1.407       .  A
C1552      H1557   1.084       .  S
C1553      C1554   1.418       .  A
C1554      C1558   1.508       .  S
C1555      C1560   1.411       .  A
C1555      C1564   1.399       .  A
C1556      H1572   1.110       .  S
C1556      H1573   1.110       .  S
C1556      H1574   1.111       .  S
C1558      H1569   1.111       .  S
C1558      H1570   1.109       .  S
C1558      H1571   1.110       .  S
C1560      C1561   1.404       .  A
C1560      C1565   1.506       .  S
C1561      C1562   1.402       .  A
C1561      H1566   1.084       .  S
C1562      C1563   1.415       .  A
C1563      C1564   1.398       .  A
C1563      C1567   1.508       .  S
C1564      H1568   1.085       .  S
C1565      H1575   1.111       .  S
C1565      H1576   1.110       .  S
C1565      H1577   1.110       .  S
C1567      H1578   1.110       .  S
C1567      H1579   1.109       .  S
C1567      H1580   1.110       .  S
C1581      C1582   1.400       .  A
C1581      C1586   1.403       .  A
C1581      H1591   1.085       .  S
C1582      C1583   1.404       .  A
C1582      C1587   1.474       .  S
C1583      C1584   1.400       .  A
C1583      C1588   1.506       .  S
C1584      C1585   1.411       .  A
C1584      H1589   1.084       .  S
C1585      C1586   1.421       .  A
C1586      C1590   1.509       .  S
C1587      C1592   1.408       .  A
C1587      C1596   1.402       .  A
C1588      H1604   1.110       .  S
C1588      H1605   1.110       .  S
C1588      H1606   1.111       .  S
C1590      H1601   1.110       .  S
C1590      H1602   1.111       .  S
C1590      H1603   1.111       .  S
C1592      C1593   1.398       .  A
C1592      C1597   1.507       .  S
C1593      C1594   1.403       .  A
C1593      H1598   1.084       .  S
C1594      C1595   1.412       .  A
C1595      C1596   1.402       .  A
C1595      C1599   1.506       .  S
C1596      H1600   1.084       .  S
C1597      H1607   1.111       .  S
C1597      H1608   1.110       .  S
C1597      H1609   1.110       .  S
C1599      H1610   1.106       .  S
C1599      H1611   1.110       .  S
C1599      H1612   1.110       .  S
C1613      C1614   1.400   1_545  A
C1613      C1618   1.408       .  A
C1613      H1623   1.084       .  S
C1614      C1615   1.410       .  A
C1614      C1619   1.488       .  S
C1615      C1616   1.407       .  A
C1615      C1620   1.507       .  S
C1616      C1617   1.409       .  A
C1616      H1621   1.084       .  S
C1617      C1618   1.425   1_565  A
C1618      C1622   1.509       .  S
C1619      C1624   1.411       .  A
C1619      C1628   1.403   1_565  A
C1620      H1636   1.110       .  S
C1620      H1637   1.109       .  S
C1620      H1638   1.111       .  S
C1622      H1633   1.109       .  S
C1622      H1634   1.111       .  S
C1622      H1635   1.111       .  S
C1624      C1625   1.403       .  A
C1624      C1629   1.507       .  S
C1625      C1626   1.403       .  A
C1625      H1630   1.083       .  S
C1626      C1627   1.416   1_565  A
C1627      C1628   1.407       .  A
C1627      C1631   1.503       .  S
C1628      H1632   1.084       .  S
C1629      H1639   1.111       .  S
C1629      H1640   1.110       .  S
C1629      H1641   1.109       .  S
C1631      H1642   1.110       .  S
C1631      H1643   1.104       .  S
C1631      H1644   1.110       .  S
C1645      C1646   1.400   1_545  A
C1645      C1650   1.409       .  A
C1645      H1655   1.084       .  S
C1646      C1647   1.409       .  A
C1646      C1651   1.487       .  S
C1647      C1648   1.405       .  A
C1647      C1652   1.507       .  S
C1648      C1649   1.411       .  A
C1648      H1653   1.084       .  S
C1649      C1650   1.424   1_565  A
C1650      C1654   1.509       .  S
C1651      C1656   1.411       .  A
C1651      C1660   1.403   1_565  A
C1652      H1668   1.110       .  S
C1652      H1669   1.110       .  S
C1652      H1670   1.111       .  S
C1654      H1665   1.109       .  S
C1654      H1666   1.111       .  S
C1654      H1667   1.110       .  S
C1656      C1657   1.404       .  A
C1656      C1661   1.506       .  S
C1657      C1658   1.403       .  A
C1657      H1662   1.083       .  S
C1658      C1659   1.415   1_565  A
C1659      C1660   1.407       .  A
C1659      C1663   1.504       .  S
C1660      H1664   1.084       .  S
C1661      H1671   1.111       .  S
C1661      H1672   1.110       .  S
C1661      H1673   1.110       .  S
C1663      H1674   1.110       .  S
C1663      H1675   1.106       .  S
C1663      H1676   1.110       .  S
C1677      C1678   1.398       .  A
C1677      C1682   1.407       .  A
C1677      H1687   1.084       .  S
C1678      C1679   1.409   1_565  A
C1678      C1683   1.487   1_565  S
C1679      C1680   1.407       .  A
C1679      C1684   1.507       .  S
C1680      C1681   1.411   1_545  A
C1680      H1685   1.083       .  S
C1681      C1682   1.428       .  A
C1682      C1686   1.510       .  S
C1683      C1688   1.412       .  A
C1683      C1692   1.403   1_545  A
C1684      H1700   1.111   1_545  S
C1684      H1701   1.110       .  S
C1684      H1702   1.111       .  S
C1686      H1697   1.109       .  S
C1686      H1698   1.111       .  S
C1686      H1699   1.111       .  S
C1688      C1689   1.405       .  A
C1688      C1693   1.506       .  S
C1689      C1690   1.403       .  A
C1689      H1694   1.084       .  S
C1690      C1691   1.414   1_545  A
C1691      C1692   1.406       .  A
C1691      C1695   1.505       .  S
C1692      H1696   1.084       .  S
C1693      H1703   1.111       .  S
C1693      H1704   1.110       .  S
C1693      H1705   1.110       .  S
C1695      H1706   1.110       .  S
C1695      H1707   1.108       .  S
C1695      H1708   1.110       .  S
C1709      C1710   1.402       .  A
C1709      C1714   1.405       .  A
C1709      H1719   1.084       .  S
C1710      C1711   1.408   1_545  A
C1710      C1715   1.477       .  S
C1711      C1712   1.399       .  A
C1711      C1716   1.508       .  S
C1712      C1713   1.405   1_565  A
C1712      H1717   1.084       .  S
C1713      C1714   1.414       .  A
C1714      C1718   1.506       .  S
C1715      C1720   1.408   1_545  A
C1715      C1724   1.401       .  A
C1716      H1732   1.110       .  S
C1716      H1733   1.110       .  S
C1716      H1734   1.111       .  S
C1718      H1729   1.110       .  S
C1718      H1730   1.111       .  S
C1718      H1731   1.106       .  S
C1720      C1721   1.403       .  A
C1720      C1725   1.506       .  S
C1721      C1722   1.407   1_565  A
C1721      H1726   1.084       .  S
C1722      C1723   1.415       .  A
C1723      C1724   1.403       .  A
C1723      C1727   1.508       .  S
C1724      H1728   1.084       .  S
C1725      H1735   1.111       .  S
C1725      H1736   1.110       .  S
C1725      H1737   1.110       .  S
C1727      H1738   1.111       .  S
C1727      H1739   1.111       .  S
C1727      H1740   1.109       .  S
C1741      C1742   1.401       .  A
C1741      C1746   1.409       .  A
C1741      H1751   1.084       .  S
C1742      C1743   1.409   1_565  A
C1742      C1747   1.489   1_565  S
C1743      C1744   1.407       .  A
C1743      C1748   1.507       .  S
C1744      C1745   1.411   1_545  A
C1744      H1749   1.084       .  S
C1745      C1746   1.424       .  A
C1746      C1750   1.509       .  S
C1747      C1752   1.411       .  A
C1747      C1756   1.405   1_545  A
C1748      H1764   1.110       .  S
C1748      H1765   1.110       .  S
C1748      H1766   1.111       .  S
C1750      H1761   1.109       .  S
C1750      H1762   1.111       .  S
C1750      H1763   1.111       .  S
C1752      C1753   1.403       .  A
C1752      C1757   1.507       .  S
C1753      C1754   1.402       .  A
C1753      H1758   1.082       .  S
C1754      C1755   1.414   1_545  A
C1755      C1756   1.409       .  A
C1755      C1759   1.504       .  S
C1756      H1760   1.084       .  S
C1757      H1767   1.111       .  S
C1757      H1768   1.110       .  S
C1757      H1769   1.110       .  S
C1759      H1770   1.110       .  S
C1759      H1771   1.107       .  S
C1759      H1772   1.110       .  S
C1773      C1774   1.402       .  A
C1773      C1778   1.404       .  A
C1773      H1783   1.084       .  S
C1774      C1775   1.404       .  A
C1774      C1779   1.473       .  S
C1775      C1776   1.399       .  A
C1775      C1780   1.507       .  S
C1776      C1777   1.411       .  A
C1776      H1781   1.084       .  S
C1777      C1778   1.417       .  A
C1778      C1782   1.508       .  S
C1779      C1784   1.408       .  A
C1779      C1788   1.401       .  A
C1780      H1796   1.110       .  S
C1780      H1797   1.110       .  S
C1780      H1798   1.111       .  S
C1782      H1793   1.109       .  S
C1782      H1794   1.111       .  S
C1782      H1795   1.111       .  S
C1784      C1785   1.397       .  A
C1784      C1789   1.508       .  S
C1785      C1786   1.403       .  A
C1785      H1790   1.084       .  S
C1786      C1787   1.415       .  A
C1787      C1788   1.403       .  A
C1787      C1791   1.507       .  S
C1788      H1792   1.084       .  S
C1789      H1799   1.111       .  S
C1789      H1800   1.110       .  S
C1789      H1801   1.110       .  S
C1791      H1802   1.110       .  S
C1791      H1803   1.106       .  S
C1791      H1804   1.110       .  S
C1805      C1806   1.398       .  A
C1805      C1810   1.399       .  A
C1805      H1815   1.085       .  S
C1806      C1807   1.412       .  A
C1806      C1811   1.479       .  S
C1807      C1808   1.405       .  A
C1807      C1812   1.506       .  S
C1808      C1809   1.403       .  A
C1808      H1813   1.084       .  S
C1809      C1810   1.416       .  A
C1810      C1814   1.508       .  S
C1811      C1816   1.412       .  A
C1811      C1820   1.396       .  A
C1812      H1828   1.110       .  S
C1812      H1829   1.110       .  S
C1812      H1830   1.111       .  S
C1814      H1825   1.110       .  S
C1814      H1826   1.110       .  S
C1814      H1827   1.108       .  S
C1816      C1817   1.406       .  A
C1816      C1821   1.507       .  S
C1817      C1818   1.404       .  A
C1817      H1822   1.084       .  S
C1818      C1819   1.423       .  A
C1819      C1820   1.403       .  A
C1819      C1823   1.510       .  S
C1820      H1824   1.084       .  S
C1821      H1831   1.111       .  S
C1821      H1832   1.111       .  S
C1821      H1833   1.110       .  S
C1823      H1834   1.111       .  S
C1823      H1835   1.111       .  S
C1823      H1836   1.108       .  S
C1837      C1838   1.395       .  A
C1837      C1842   1.400       .  A
C1837      H1847   1.085       .  S
C1838      C1839   1.412       .  A
C1838      C1843   1.475       .  S
C1839      C1840   1.405       .  A
C1839      C1844   1.507       .  S
C1840      C1841   1.404       .  A
C1840      H1845   1.083       .  S
C1841      C1842   1.424       .  A
C1842      C1846   1.511       .  S
C1843      C1848   1.411       .  A
C1843      C1852   1.398       .  A
C1844      H1860   1.110       .  S
C1844      H1861   1.109       .  S
C1844      H1862   1.111       .  S
C1846      H1857   1.108       .  S
C1846      H1858   1.111       .  S
C1846      H1859   1.110       .  S
C1848      C1849   1.404       .  A
C1848      C1853   1.506       .  S
C1849      C1850   1.403       .  A
C1849      H1854   1.084       .  S
C1850      C1851   1.415       .  A
C1851      C1852   1.397       .  A
C1851      C1855   1.509       .  S
C1852      H1856   1.085       .  S
C1853      H1863   1.111       .  S
C1853      H1864   1.110       .  S
C1853      H1865   1.109       .  S
C1855      H1866   1.110       .  S
C1855      H1867   1.108       .  S
C1855      H1868   1.110       .  S
C1869      C1870   1.398       .  A
C1869      C1874   1.399       .  A
C1869      H1879   1.085       .  S
C1870      C1871   1.412       .  A
C1870      C1875   1.482       .  S
C1871      C1872   1.407       .  A
C1871      C1876   1.505       .  S
C1872      C1873   1.404       .  A
C1872      H1877   1.084       .  S
C1873      C1874   1.418       .  A
C1874      C1878   1.509       .  S
C1875      C1880   1.412       .  A
C1875      C1884   1.398       .  A
C1876      H1892   1.110       .  S
C1876      H1893   1.110       .  S
C1876      H1894   1.111       .  S
C1878      H1889   1.110       .  S
C1878      H1890   1.110       .  S
C1878      H1891   1.108       .  S
C1880      C1881   1.405       .  A
C1880      C1885   1.506       .  S
C1881      C1882   1.403       .  A
C1881      H1886   1.084       .  S
C1882      C1883   1.424       .  A
C1883      C1884   1.404       .  A
C1883      C1887   1.509       .  S
C1884      H1888   1.085       .  S
C1885      H1895   1.111       .  S
C1885      H1896   1.110       .  S
C1885      H1897   1.110       .  S
C1887      H1898   1.111       .  S
C1887      H1899   1.105       .  S
C1887      H1900   1.110       .  S
C1901      C1902   1.399   1_545  A
C1901      C1906   1.399       .  A
C1901      H1911   1.085       .  S
C1902      C1903   1.412       .  A
C1902      C1907   1.475       .  S
C1903      C1904   1.402       .  A
C1903      C1908   1.507       .  S
C1904      C1905   1.401       .  A
C1904      H1909   1.084       .  S
C1905      C1906   1.413   1_565  A
C1906      C1910   1.507       .  S
C1907      C1912   1.407   1_565  A
C1907      C1916   1.402       .  A
C1908      H1924   1.109       .  S
C1908      H1925   1.110       .  S
C1908      H1926   1.111       .  S
C1910      H1921   1.110       .  S
C1910      H1922   1.111       .  S
C1910      H1923   1.107       .  S
C1912      C1913   1.398       .  A
C1912      C1917   1.507       .  S
C1913      C1914   1.410   1_545  A
C1913      H1918   1.084       .  S
C1914      C1915   1.417       .  A
C1915      C1916   1.402       .  A
C1915      C1919   1.507       .  S
C1916      H1920   1.084       .  S
C1917      H1927   1.111       .  S
C1917      H1928   1.109       .  S
C1917      H1929   1.110       .  S
C1919      H1930   1.111       .  S
C1919      H1931   1.110       .  S
C1919      H1932   1.110       .  S
C1933      C1934   1.394       .  A
C1933      C1938   1.398       .  A
C1933      H1943   1.085       .  S
C1934      C1935   1.411   1_545  A
C1934      C1939   1.471       .  S
C1935      C1936   1.403       .  A
C1935      C1940   1.507       .  S
C1936      C1937   1.404   1_565  A
C1936      H1941   1.084       .  S
C1937      C1938   1.424       .  A
C1938      C1942   1.511       .  S
C1939      C1944   1.410   1_545  A
C1939      C1948   1.398       .  A
C1940      H1956   1.110       .  S
C1940      H1957   1.109       .  S
C1940      H1958   1.111       .  S
C1942      H1953   1.109       .  S
C1942      H1954   1.111       .  S
C1942      H1955   1.110       .  S
C1944      C1945   1.403       .  A
C1944      C1949   1.506       .  S
C1945      C1946   1.403   1_565  A
C1945      H1950   1.084       .  S
C1946      C1947   1.413       .  A
C1947      C1948   1.396       .  A
C1947      C1951   1.508       .  S
C1948      H1952   1.085       .  S
C1949      H1959   1.111       .  S
C1949      H1960   1.110       .  S
C1949      H1961   1.109       .  S
C1951      H1962   1.110       .  S
C1951      H1963   1.109       .  S
C1951      H1964   1.110       .  S
C1965      C1966   1.402       .  A
C1965      C1970   1.404       .  A
C1965      H1975   1.084       .  S
C1966      C1967   1.406   1_565  A
C1966      C1971   1.475       .  S
C1967      C1968   1.398       .  A
C1967      C1972   1.507       .  S
C1968      C1969   1.410   1_545  A
C1968      H1973   1.084       .  S
C1969      C1970   1.417       .  A
C1970      C1974   1.507       .  S
C1971      C1976   1.411       .  A
C1971      C1980   1.399   1_565  A
C1972      H1988   1.110       .  S
C1972      H1989   1.110   1_545  S
C1972      H1990   1.111       .  S
C1974      H1985   1.108       .  S
C1974      H1986   1.111       .  S
C1974      H1987   1.110       .  S
C1976      C1977   1.402       .  A
C1976      C1981   1.506       .  S
C1977      C1978   1.401       .  A
C1977      H1982   1.084       .  S
C1978      C1979   1.413   1_565  A
C1979      C1980   1.397       .  A
C1979      C1983   1.508       .  S
C1980      H1984   1.085       .  S
C1981      H1991   1.111       .  S
C1981      H1992   1.110       .  S
C1981      H1993   1.110       .  S
C1983      H1994   1.110       .  S
C1983      H1995   1.106       .  S
C1983      H1996   1.110       .  S
C1997      C1998   1.402       .  A
C1997      C2002   1.405       .  A
C1997      H2007   1.084       .  S
C1998      C1999   1.408   1_545  A
C1998      C2003   1.482       .  S
C1999      C2000   1.404       .  A
C1999      C2004   1.506       .  S
C2000      C2001   1.410   1_565  A
C2000      H2005   1.084       .  S
C2001      C2002   1.417       .  A
C2002      C2006   1.506       .  S
C2003      C2008   1.412       .  A
C2003      C2012   1.401   1_545  A
C2004      H2020   1.110       .  S
C2004      H2021   1.111       .  S
C2004      H2022   1.111       .  S
C2006      H2017   1.111       .  S
C2006      H2018   1.111       .  S
C2006      H2019   1.109       .  S
C2008      C2009   1.404       .  A
C2008      C2013   1.506       .  S
C2009      C2010   1.401       .  A
C2009      H2014   1.083       .  S
C2010      C2011   1.415   1_545  A
C2011      C2012   1.401       .  A
C2011      C2015   1.508       .  S
C2012      H2016   1.085       .  S
C2013      H2023   1.111       .  S
C2013      H2024   1.110       .  S
C2013      H2025   1.110       .  S
C2015      H2026   1.110       .  S
C2015      H2027   1.108       .  S
C2015      H2028   1.110       .  S
C2029      C2030   1.399       .  A
C2029      C2034   1.406       .  A
C2029      H2039   1.084       .  S
C2030      C2031   1.409       .  A
C2030      C2035   1.489       .  S
C2031      C2032   1.408       .  A
C2031      C2036   1.506       .  S
C2032      C2033   1.412       .  A
C2032      H2037   1.083       .  S
C2033      C2034   1.428       .  A
C2034      C2038   1.510       .  S
C2035      C2040   1.412       .  A
C2035      C2044   1.402       .  A
C2036      H2052   1.110       .  S
C2036      H2053   1.110       .  S
C2036      H2054   1.111       .  S
C2038      H2049   1.104       .  S
C2038      H2050   1.111       .  S
C2038      H2051   1.105       .  S
C2040      C2041   1.405       .  A
C2040      C2045   1.506       .  S
C2041      C2042   1.403       .  A
C2041      H2046   1.083       .  S
C2042      C2043   1.419       .  A
C2043      C2044   1.406       .  A
C2043      C2047   1.506       .  S
C2044      H2048   1.084       .  S
C2045      H2055   1.111       .  S
C2045      H2056   1.110       .  S
C2045      H2057   1.110       .  S
C2047      H2058   1.110       .  S
C2047      H2059   1.106       .  S
C2047      H2060   1.111       .  S
C2061      C2062   1.400       .  A
C2061      C2066   1.409       .  A
C2061      H2071   1.084       .  S
C2062      C2063   1.410       .  A
C2062      C2067   1.490       .  S
C2063      C2064   1.408       .  A
C2063      C2068   1.507       .  S
C2064      C2065   1.410       .  A
C2064      H2069   1.084       .  S
C2065      C2066   1.426       .  A
C2066      C2070   1.510       .  S
C2067      C2072   1.413       .  A
C2067      C2076   1.402       .  A
C2068      H2084   1.110       .  S
C2068      H2085   1.109       .  S
C2068      H2086   1.111       .  S
C2070      H2081   1.110       .  S
C2070      H2082   1.111       .  S
C2070      H2083   1.111       .  S
C2072      C2073   1.408       .  A
C2072      C2077   1.506       .  S
C2073      C2074   1.405       .  A
C2073      H2078   1.083       .  S
C2074      C2075   1.415       .  A
C2075      C2076   1.405       .  A
C2075      C2079   1.504       .  S
C2076      H2080   1.084       .  S
C2077      H2087   1.111       .  S
C2077      H2088   1.110       .  S
C2077      H2089   1.109       .  S
C2079      H2090   1.111       .  S
C2079      H2091   1.106       .  S
C2079      H2092   1.110       .  S
C2093      C2094   1.399       .  A
C2093      C2098   1.405       .  A
C2093      H2103   1.084       .  S
C2094      C2095   1.411       .  A
C2094      C2099   1.488       .  S
C2095      C2096   1.410       .  A
C2095      C2100   1.506       .  S
C2096      C2097   1.410       .  A
C2096      H2101   1.084       .  S
C2097      C2098   1.423       .  A
C2098      C2102   1.510       .  S
C2099      C2104   1.412       .  A
C2099      C2108   1.401       .  A
C2100      H2116   1.110       .  S
C2100      H2117   1.110       .  S
C2100      H2118   1.111       .  S
C2102      H2113   1.109       .  S
C2102      H2114   1.111       .  S
C2102      H2115   1.111       .  S
C2104      C2105   1.408       .  A
C2104      C2109   1.505       .  S
C2105      C2106   1.406       .  A
C2105      H2110   1.083       .  S
C2106      C2107   1.418       .  A
C2107      C2108   1.404       .  A
C2107      C2111   1.505       .  S
C2108      H2112   1.085       .  S
C2109      H2119   1.111       .  S
C2109      H2120   1.110       .  S
C2109      H2121   1.110       .  S
C2111      H2122   1.111       .  S
C2111      H2123   1.105       .  S
C2111      H2124   1.110       .  S
C2125      C2126   1.403       .  A
C2125      C2130   1.407       .  A
C2125      H2135   1.084       .  S
C2126      C2127   1.412       .  A
C2126      C2131   1.490       .  S
C2127      C2128   1.406       .  A
C2127      C2132   1.506       .  S
C2128      C2129   1.405       .  A
C2128      H2133   1.083       .  S
C2129      C2130   1.416       .  A
C2130      C2134   1.505       .  S
C2131      C2136   1.410       .  A
C2131      C2140   1.399       .  A
C2132      H2148   1.110       .  S
C2132      H2149   1.109       .  S
C2132      H2150   1.111       .  S
C2134      H2145   1.110       .  S
C2134      H2146   1.110       .  S
C2134      H2147   1.106       .  S
C2136      C2137   1.408       .  A
C2136      C2141   1.506       .  S
C2137      C2138   1.411       .  A
C2137      H2142   1.083       .  S
C2138      C2139   1.424       .  A
C2139      C2140   1.409       .  A
C2139      C2143   1.504       .  S
C2140      H2144   1.084       .  S
C2141      H2151   1.111       .  S
C2141      H2152   1.110       .  S
C2141      H2153   1.109       .  S
C2143      H2154   1.111       .  S
C2143      H2155   1.109       .  S
C2143      H2156   1.109       .  S
C2157      C2158   1.397       .  A
C2157      C2162   1.401       .  A
C2157      H2167   1.084       .  S
C2158      C2159   1.412   1_655  A
C2158      C2163   1.480       .  S
C2159      C2160   1.403       .  A
C2159      C2164   1.507       .  S
C2160      C2161   1.405   1_455  A
C2160      H2165   1.084       .  S
C2161      C2162   1.423       .  A
C2162      C2166   1.508       .  S
C2163      C2168   1.413       .  A
C2163      C2172   1.402   1_655  A
C2164      H2180   1.109       .  S
C2164      H2181   1.110   1_455  S
C2164      H2182   1.111       .  S
C2166      H2177   1.111       .  S
C2166      H2178   1.109       .  S
C2166      H2179   1.110       .  S
C2168      C2169   1.400       .  A
C2168      C2173   1.507       .  S
C2169      C2170   1.401       .  A
C2169      H2174   1.084       .  S
C2170      C2171   1.415   1_655  A
C2171      C2172   1.401       .  A
C2171      C2175   1.508       .  S
C2172      H2176   1.084       .  S
C2173      H2183   1.111       .  S
C2173      H2184   1.109       .  S
C2173      H2185   1.110       .  S
C2175      H2186   1.110       .  S
C2175      H2187   1.106       .  S
C2175      H2188   1.111       .  S
C2189      C2190   1.404   1_655  A
C2189      C2194   1.403       .  A
C2189      H2199   1.084       .  S
C2190      C2191   1.412       .  A
C2190      C2195   1.481       .  S
C2191      C2192   1.398       .  A
C2191      C2196   1.509       .  S
C2192      C2193   1.403   1_455  A
C2192      H2197   1.085       .  S
C2193      C2194   1.412       .  A
C2194      C2198   1.504       .  S
C2195      C2200   1.417   1_455  A
C2195      C2204   1.401       .  A
C2196      H2212   1.108       .  S
C2196      H2213   1.110       .  S
C2196      H2214   1.111       .  S
C2198      H2209   1.111       .  S
C2198      H2210   1.106       .  S
C2198      H2211   1.110       .  S
C2200      C2201   1.400       .  A
C2200      C2205   1.509       .  S
C2201      C2202   1.398   1_655  A
C2201      H2206   1.085       .  S
C2202      C2203   1.413       .  A
C2203      C2204   1.399       .  A
C2203      C2207   1.507       .  S
C2204      H2208   1.084       .  S
C2205      H2215   1.111       .  S
C2205      H2216   1.108       .  S
C2205      H2217   1.110       .  S
C2207      H2218   1.108       .  S
C2207      H2219   1.109       .  S
C2207      H2220   1.110       .  S
C2221      C2222   1.398       .  A
C2221      C2226   1.399       .  A
C2221      H2231   1.085       .  S
C2222      C2223   1.410   1_655  A
C2222      C2227   1.476       .  S
C2223      C2224   1.404       .  A
C2223      C2228   1.506       .  S
C2224      C2225   1.402   1_455  A
C2224      H2229   1.084       .  S
C2225      C2226   1.416       .  A
C2226      C2230   1.508       .  S
C2227      C2232   1.404       .  A
C2227      C2236   1.400       .  A
C2228      H2244   1.110       .  S
C2228      H2245   1.110       .  S
C2228      H2246   1.111       .  S
C2230      H2241   1.110       .  S
C2230      H2242   1.110       .  S
C2230      H2243   1.107       .  S
C2232      C2233   1.401       .  A
C2232      C2237   1.506       .  S
C2233      C2234   1.412       .  A
C2233      H2238   1.084       .  S
C2234      C2235   1.419       .  A
C2235      C2236   1.404       .  A
C2235      C2239   1.508   1_655  S
C2236      H2240   1.084   1_655  S
C2237      H2247   1.108       .  S
C2237      H2248   1.110       .  S
C2237      H2249   1.110       .  S
C2239      H2250   1.110   1_455  S
C2239      H2251   1.111       .  S
C2239      H2252   1.111       .  S
C2253      C2254   1.400   1_455  A
C2253      C2258   1.400       .  A
C2253      H2263   1.084       .  S
C2254      C2255   1.411       .  A
C2254      C2259   1.477       .  S
C2255      C2256   1.403       .  A
C2255      C2260   1.506       .  S
C2256      C2257   1.401       .  A
C2256      H2261   1.084       .  S
C2257      C2258   1.412   1_655  A
C2258      C2262   1.507       .  S
C2259      C2264   1.404   1_655  A
C2259      C2268   1.403       .  A
C2260      H2276   1.110       .  S
C2260      H2277   1.110       .  S
C2260      H2278   1.111       .  S
C2262      H2273   1.110       .  S
C2262      H2274   1.110       .  S
C2262      H2275   1.109       .  S
C2264      C2265   1.398       .  A
C2264      C2269   1.508       .  S
C2265      C2266   1.410       .  A
C2265      H2270   1.080       .  S
C2266      C2267   1.419   1_455  A
C2267      C2268   1.407       .  A
C2267      C2271   1.508       .  S
C2268      H2272   1.084       .  S
C2269      H2279   1.110       .  S
C2269      H2280   1.110       .  S
C2269      H2281   1.110       .  S
C2271      H2282   1.109       .  S
C2271      H2283   1.111       .  S
C2271      H2284   1.111       .  S
C2285      C2286   1.398       .  A
C2285      C2290   1.397       .  A
C2285      H2295   1.085       .  S
C2286      C2287   1.411   1_655  A
C2286      C2291   1.475       .  S
C2287      C2288   1.404       .  A
C2287      C2292   1.506       .  S
C2288      C2289   1.403   1_455  A
C2288      H2293   1.084       .  S
C2289      C2290   1.415       .  A
C2290      C2294   1.508       .  S
C2291      C2296   1.413   1_655  A
C2291      C2300   1.396       .  A
C2292      H2308   1.110       .  S
C2292      H2309   1.109       .  S
C2292      H2310   1.111       .  S
C2294      H2305   1.110       .  S
C2294      H2306   1.111       .  S
C2294      H2307   1.108       .  S
C2296      C2297   1.404       .  A
C2296      C2301   1.507       .  S
C2297      C2298   1.402   1_455  A
C2297      H2302   1.084       .  S
C2298      C2299   1.421       .  A
C2299      C2300   1.399       .  A
C2299      C2303   1.511       .  S
C2300      H2304   1.084       .  S
C2301      H2311   1.111       .  S
C2301      H2312   1.110       .  S
C2301      H2313   1.109       .  S
C2303      H2314   1.111       .  S
C2303      H2315   1.109       .  S
C2303      H2316   1.111       .  S
C2317      C2318   1.399       .  A
C2317      C2322   1.399       .  A
C2317      H2327   1.085       .  S
C2318      C2319   1.411   1_455  A
C2318      C2323   1.476       .  S
C2319      C2320   1.404       .  A
C2319      C2324   1.506       .  S
C2320      C2321   1.402   1_655  A
C2320      H2325   1.084       .  S
C2321      C2322   1.414       .  A
C2322      C2326   1.507       .  S
C2323      C2328   1.410   1_455  A
C2323      C2332   1.393       .  A
C2324      H2340   1.110       .  S
C2324      H2341   1.110       .  S
C2324      H2342   1.111       .  S
C2326      H2337   1.110       .  S
C2326      H2338   1.110       .  S
C2326      H2339   1.109       .  S
C2328      C2329   1.404       .  A
C2328      C2333   1.506       .  S
C2329      C2330   1.407   1_655  A
C2329      H2334   1.083       .  S
C2330      C2331   1.426       .  A
C2331      C2332   1.400       .  A
C2331      C2335   1.506       .  S
C2332      H2336   1.085       .  S
C2333      H2343   1.111       .  S
C2333      H2344   1.110       .  S
C2333      H2345   1.110       .  S
C2335      H2346   1.111       .  S
C2335      H2347   1.110       .  S
C2335      H2348   1.110       .  S
C2349      C2350   1.402       .  A
C2349      C2354   1.407       .  A
C2349      H2359   1.084       .  S
C2350      C2351   1.404       .  A
C2350      C2355   1.478       .  S
C2351      C2352   1.400       .  A
C2351      C2356   1.507       .  S
C2352      C2353   1.414       .  A
C2352      H2357   1.083       .  S
C2353      C2354   1.421       .  A
C2354      C2358   1.508       .  S
C2355      C2360   1.408       .  A
C2355      C2364   1.402       .  A
C2356      H2372   1.110       .  S
C2356      H2373   1.110       .  S
C2356      H2374   1.111       .  S
C2358      H2369   1.110       .  S
C2358      H2370   1.111       .  S
C2358      H2371   1.110       .  S
C2360      C2361   1.400       .  A
C2360      C2365   1.507       .  S
C2361      C2362   1.405       .  A
C2361      H2366   1.084       .  S
C2362      C2363   1.415       .  A
C2363      C2364   1.404       .  A
C2363      C2367   1.506       .  S
C2364      H2368   1.084       .  S
C2365      H2375   1.111       .  S
C2365      H2376   1.110       .  S
C2365      H2377   1.110       .  S
C2367      H2378   1.110       .  S
C2367      H2379   1.104       .  S
C2367      H2380   1.110       .  S
C2381      C2382   1.401       .  A
C2381      C2386   1.403       .  A
C2381      H2391   1.084       .  S
C2382      C2383   1.404       .  A
C2382      C2387   1.472       .  S
C2383      C2384   1.398       .  A
C2383      C2388   1.507       .  S
C2384      C2385   1.411       .  A
C2384      H2389   1.084       .  S
C2385      C2386   1.419       .  A
C2386      C2390   1.509       .  S
C2387      C2392   1.407       .  A
C2387      C2396   1.402       .  A
C2388      H2404   1.110       .  S
C2388      H2405   1.110       .  S
C2388      H2406   1.111       .  S
C2390      H2401   1.110       .  S
C2390      H2402   1.111       .  S
C2390      H2403   1.111       .  S
C2392      C2393   1.397       .  A
C2392      C2397   1.507       .  S
C2393      C2394   1.402       .  A
C2393      H2398   1.084       .  S
C2394      C2395   1.413       .  A
C2395      C2396   1.402       .  A
C2395      C2399   1.506       .  S
C2396      H2400   1.085       .  S
C2397      H2407   1.111       .  S
C2397      H2408   1.110       .  S
C2397      H2409   1.110       .  S
C2399      H2410   1.110       .  S
C2399      H2411   1.106       .  S
C2399      H2412   1.110       .  S
C2413      C2414   1.397       .  A
C2413      C2418   1.402       .  A
C2413      H2423   1.084       .  S
C2414      C2415   1.412       .  A
C2414      C2419   1.477       .  S
C2415      C2416   1.403       .  A
C2415      C2420   1.507       .  S
C2416      C2417   1.404       .  A
C2416      H2421   1.083       .  S
C2417      C2418   1.422       .  A
C2418      C2422   1.510       .  S
C2419      C2424   1.412       .  A
C2419      C2428   1.398       .  A
C2420      H2436   1.110       .  S
C2420      H2437   1.109       .  S
C2420      H2438   1.111       .  S
C2422      H2433   1.109       .  S
C2422      H2434   1.111       .  S
C2422      H2435   1.111       .  S
C2424      C2425   1.406       .  A
C2424      C2429   1.506       .  S
C2425      C2426   1.404       .  A
C2425      H2430   1.084       .  S
C2426      C2427   1.416       .  A
C2427      C2428   1.398       .  A
C2427      C2431   1.507       .  S
C2428      H2432   1.085       .  S
C2429      H2439   1.111       .  S
C2429      H2440   1.110       .  S
C2429      H2441   1.109       .  S
C2431      H2442   1.111       .  S
C2431      H2443   1.108       .  S
C2431      H2444   1.110       .  S
C2445      C2446   1.396       .  A
C2445      C2450   1.402       .  A
C2445      H2455   1.084       .  S
C2446      C2447   1.410       .  A
C2446      C2451   1.475       .  S
C2447      C2448   1.403       .  A
C2447      C2452   1.507       .  S
C2448      C2449   1.405       .  A
C2448      H2453   1.084       .  S
C2449      C2450   1.423       .  A
C2450      C2454   1.508       .  S
C2451      C2456   1.411       .  A
C2451      C2460   1.398       .  A
C2452      H2468   1.110       .  S
C2452      H2469   1.110       .  S
C2452      H2470   1.111       .  S
C2454      H2465   1.109       .  S
C2454      H2466   1.111       .  S
C2454      H2467   1.111       .  S
C2456      C2457   1.403       .  A
C2456      C2461   1.506       .  S
C2457      C2458   1.402       .  A
C2457      H2462   1.084       .  S
C2458      C2459   1.416       .  A
C2459      C2460   1.399       .  A
C2459      C2463   1.507       .  S
C2460      H2464   1.085       .  S
C2461      H2471   1.111       .  S
C2461      H2472   1.110       .  S
C2461      H2473   1.110       .  S
C2463      H2474   1.110       .  S
C2463      H2475   1.109       .  S
C2463      H2476   1.110       .  S
C2477      C2478   1.400       .  A
C2477      C2482   1.405       .  A
C2477      H2487   1.084       .  S
C2478      C2479   1.403       .  A
C2478      C2483   1.475       .  S
C2479      C2480   1.399       .  A
C2479      C2484   1.507       .  S
C2480      C2481   1.415       .  A
C2480      H2485   1.082       .  S
C2481      C2482   1.422       .  A
C2482      C2486   1.508       .  S
C2483      C2488   1.409       .  A
C2483      C2492   1.401       .  A
C2484      H2500   1.110       .  S
C2484      H2501   1.110       .  S
C2484      H2502   1.111       .  S
C2486      H2497   1.109       .  S
C2486      H2498   1.111       .  S
C2486      H2499   1.111       .  S
C2488      C2489   1.400       .  A
C2488      C2493   1.506       .  S
C2489      C2490   1.401       .  A
C2489      H2494   1.084       .  S
C2490      C2491   1.411       .  A
C2491      C2492   1.401       .  A
C2491      C2495   1.507       .  S
C2492      H2496   1.084       .  S
C2493      H2503   1.111       .  S
C2493      H2504   1.110       .  S
C2493      H2505   1.110       .  S
C2495      H2506   1.110       .  S
C2495      H2507   1.107       .  S
C2495      H2508   1.110       .  S
C2509      C2510   1.396       .  A
C2509      C2514   1.399       .  A
C2509      H2519   1.084       .  S
C2510      C2511   1.411       .  A
C2510      C2515   1.473       .  S
C2511      C2512   1.403       .  A
C2511      C2516   1.507       .  S
C2512      C2513   1.405       .  A
C2512      H2517   1.084       .  S
C2513      C2514   1.418       .  A
C2514      C2518   1.510       .  S
C2515      C2520   1.411       .  A
C2515      C2524   1.396       .  A
C2516      H2532   1.110       .  S
C2516      H2533   1.109       .  S
C2516      H2534   1.111       .  S
C2518      H2529   1.109       .  S
C2518      H2530   1.111       .  S
C2518      H2531   1.111       .  S
C2520      C2521   1.405       .  A
C2520      C2525   1.506       .  S
C2521      C2522   1.403       .  A
C2521      H2526   1.084       .  S
C2522      C2523   1.417       .  A
C2523      C2524   1.396       .  A
C2523      C2527   1.508       .  S
C2524      H2528   1.085       .  S
C2525      H2535   1.111       .  S
C2525      H2536   1.110       .  S
C2525      H2537   1.110       .  S
C2527      H2538   1.110       .  S
C2527      H2539   1.107       .  S
C2527      H2540   1.110       .  S
C2541      C2542   1.400       .  A
C2541      C2546   1.402       .  A
C2541      H2551   1.084       .  S
C2542      C2543   1.402       .  A
C2542      C2547   1.466       .  S
C2543      C2544   1.395       .  A
C2543      C2548   1.508       .  S
C2544      C2545   1.412       .  A
C2544      H2549   1.084       .  S
C2545      C2546   1.418       .  A
C2546      C2550   1.508       .  S
C2547      C2552   1.409       .  A
C2547      C2556   1.397       .  A
C2548      H2564   1.110       .  S
C2548      H2565   1.110       .  S
C2548      H2566   1.111       .  S
C2550      H2561   1.110       .  S
C2550      H2562   1.111       .  S
C2550      H2563   1.110       .  S
C2552      C2553   1.401       .  A
C2552      C2557   1.506       .  S
C2553      C2554   1.401       .  A
C2553      H2558   1.084       .  S
C2554      C2555   1.413       .  A
C2555      C2556   1.395       .  A
C2555      C2559   1.508       .  S
C2556      H2560   1.085       .  S
C2557      H2567   1.111       .  S
C2557      H2568   1.110       .  S
C2557      H2569   1.110       .  S
C2559      H2570   1.110       .  S
C2559      H2571   1.106       .  S
C2559      H2572   1.110       .  S
C2573      C2574   1.401       .  A
C2573      C2578   1.401       .  A
C2573      H2583   1.084       .  S
C2574      C2575   1.406       .  A
C2574      C2579   1.472       .  S
C2575      C2576   1.400       .  A
C2575      C2580   1.507       .  S
C2576      C2577   1.409       .  A
C2576      H2581   1.084       .  S
C2577      C2578   1.416       .  A
C2578      C2582   1.509       .  S
C2579      C2584   1.407       .  A
C2579      C2588   1.402       .  A
C2580      H2596   1.110       .  S
C2580      H2597   1.110       .  S
C2580      H2598   1.111       .  S
C2582      H2593   1.110       .  S
C2582      H2594   1.111       .  S
C2582      H2595   1.111       .  S
C2584      C2585   1.397       .  A
C2584      C2589   1.508       .  S
C2585      C2586   1.404       .  A
C2585      H2590   1.084       .  S
C2586      C2587   1.414       .  A
C2587      C2588   1.403       .  A
C2587      C2591   1.507       .  S
C2588      H2592   1.085       .  S
C2589      H2599   1.111       .  S
C2589      H2600   1.111       .  S
C2589      H2601   1.109       .  S
C2591      H2602   1.111       .  S
C2591      H2603   1.106       .  S
C2591      H2604   1.110       .  S
C2605      C2606   1.399       .  A
C2605      C2610   1.409       .  A
C2605      H2615   1.084       .  S
C2606      C2607   1.408   1_455  A
C2606      C2611   1.486   1_455  S
C2607      C2608   1.404   1_655  A
C2607      C2612   1.508       .  S
C2608      C2609   1.411       .  A
C2608      H2613   1.082   1_455  S
C2609      C2610   1.428       .  A
C2610      C2614   1.508       .  S
C2611      C2616   1.412   1_655  A
C2611      C2620   1.400       .  A
C2612      H2628   1.110       .  S
C2612      H2629   1.110   1_655  S
C2612      H2630   1.111       .  S
C2614      H2625   1.111       .  S
C2614      H2626   1.110   1_455  S
C2614      H2627   1.109       .  S
C2616      C2617   1.408       .  A
C2616      C2621   1.505       .  S
C2617      C2618   1.403   1_455  A
C2617      H2622   1.083       .  S
C2618      C2619   1.416       .  A
C2619      C2620   1.403       .  A
C2619      C2623   1.506       .  S
C2620      H2624   1.085       .  S
C2621      H2631   1.111       .  S
C2621      H2632   1.111       .  S
C2621      H2633   1.109       .  S
C2623      H2634   1.110       .  S
C2623      H2635   1.107       .  S
C2623      H2636   1.111       .  S
C2637      C2638   1.403   1_455  A
C2637      C2642   1.411       .  A
C2637      H2647   1.084       .  S
C2638      C2639   1.412       .  A
C2638      C2643   1.494       .  S
C2639      C2640   1.407       .  A
C2639      C2644   1.507       .  S
C2640      C2641   1.409       .  A
C2640      H2645   1.084       .  S
C2641      C2642   1.423   1_655  A
C2642      C2646   1.509       .  S
C2643      C2648   1.414   1_655  A
C2643      C2652   1.403       .  A
C2644      H2660   1.110       .  S
C2644      H2661   1.110       .  S
C2644      H2662   1.111       .  S
C2646      H2657   1.111       .  S
C2646      H2658   1.111       .  S
C2646      H2659   1.109       .  S
C2648      C2649   1.409       .  A
C2648      C2653   1.505       .  S
C2649      C2650   1.404   1_455  A
C2649      H2654   1.083       .  S
C2650      C2651   1.414       .  A
C2651      C2652   1.406       .  A
C2651      C2655   1.504       .  S
C2652      H2656   1.084       .  S
C2653      H2663   1.111       .  S
C2653      H2664   1.110       .  S
C2653      H2665   1.110       .  S
C2655      H2666   1.110       .  S
C2655      H2667   1.105       .  S
C2655      H2668   1.110       .  S
C2669      C2670   1.402       .  A
C2669      C2674   1.406       .  A
C2669      H2679   1.084       .  S
C2670      C2671   1.412   1_655  A
C2670      C2675   1.489   1_655  S
C2671      C2672   1.407       .  A
C2671      C2676   1.506       .  S
C2672      C2673   1.404   1_455  A
C2672      H2677   1.083       .  S
C2673      C2674   1.416       .  A
C2674      C2678   1.505       .  S
C2675      C2680   1.407       .  A
C2675      C2684   1.401   1_455  A
C2676      H2692   1.110       .  S
C2676      H2693   1.111       .  S
C2676      H2694   1.111       .  S
C2678      H2689   1.111       .  S
C2678      H2690   1.110       .  S
C2678      H2691   1.106       .  S
C2680      C2681   1.405       .  A
C2680      C2685   1.507       .  S
C2681      C2682   1.414       .  A
C2681      H2686   1.083       .  S
C2682      C2683   1.427   1_455  A
C2683      C2684   1.409       .  A
C2683      C2687   1.509       .  S
C2684      H2688   1.084       .  S
C2685      H2695   1.111       .  S
C2685      H2696   1.110   1_455  S
C2685      H2697   1.110       .  S
C2687      H2698   1.111       .  S
C2687      H2699   1.110       .  S
C2687      H2700   1.110   1_655  S
C2701      C2702   1.397       .  A
C2701      C2706   1.396       .  A
C2701      H2711   1.085       .  S
C2702      C2703   1.412   1_655  A
C2702      C2707   1.473       .  S
C2703      C2704   1.404       .  A
C2703      C2708   1.507       .  S
C2704      C2705   1.403   1_455  A
C2704      H2709   1.084       .  S
C2705      C2706   1.415       .  A
C2706      C2710   1.508       .  S
C2707      C2712   1.411   1_655  A
C2707      C2716   1.396       .  A
C2708      H2724   1.110       .  S
C2708      H2725   1.109       .  S
C2708      H2726   1.111       .  S
C2710      H2721   1.110       .  S
C2710      H2722   1.110       .  S
C2710      H2723   1.109       .  S
C2712      C2713   1.402       .  A
C2712      C2717   1.507       .  S
C2713      C2714   1.402   1_455  A
C2713      H2718   1.083       .  S
C2714      C2715   1.422       .  A
C2715      C2716   1.400       .  A
C2715      C2719   1.511       .  S
C2716      H2720   1.084       .  S
C2717      H2727   1.111       .  S
C2717      H2728   1.110       .  S
C2717      H2729   1.109       .  S
C2719      H2730   1.111       .  S
C2719      H2731   1.111       .  S
C2719      H2732   1.109       .  S
C2733      C2734   1.397       .  A
C2733      C2738   1.395       .  A
C2733      H2743   1.085       .  S
C2734      C2735   1.409   1_455  A
C2734      C2739   1.468       .  S
C2735      C2736   1.401       .  A
C2735      C2740   1.506       .  S
C2736      C2737   1.403   1_655  A
C2736      H2741   1.084       .  S
C2737      C2738   1.414       .  A
C2738      C2742   1.508       .  S
C2739      C2744   1.410   1_455  A
C2739      C2748   1.394       .  A
C2740      H2756   1.110       .  S
C2740      H2757   1.110       .  S
C2740      H2758   1.111       .  S
C2742      H2753   1.110       .  S
C2742      H2754   1.110       .  S
C2742      H2755   1.107       .  S
C2744      C2745   1.399       .  A
C2744      C2749   1.507       .  S
C2745      C2746   1.403   1_655  A
C2745      H2750   1.082       .  S
C2746      C2747   1.425       .  A
C2747      C2748   1.399       .  A
C2747      C2751   1.511       .  S
C2748      H2752   1.084       .  S
C2749      H2759   1.111       .  S
C2749      H2760   1.110       .  S
C2749      H2761   1.110       .  S
C2751      H2762   1.110       .  S
C2751      H2763   1.110       .  S
C2751      H2764   1.111       .  S
C2765      C2766   1.400       .  A
C2765      C2770   1.407       .  A
C2765      H2775   1.084       .  S
C2766      C2767   1.412   1_455  A
C2766      C2771   1.491       .  S
C2767      C2768   1.410       .  A
C2767      C2772   1.508       .  S
C2768      C2769   1.412   1_655  A
C2768      H2773   1.084       .  S
C2769      C2770   1.423       .  A
C2770      C2774   1.509       .  S
C2771      C2776   1.415   1_455  A
C2771      C2780   1.403       .  A
C2772      H2788   1.111   1_655  S
C2772      H2789   1.108       .  S
C2772      H2790   1.111       .  S
C2774      H2785   1.109       .  S
C2774      H2786   1.111       .  S
C2774      H2787   1.111       .  S
C2776      C2777   1.408       .  A
C2776      C2781   1.507       .  S
C2777      C2778   1.402       .  A
C2777      H2782   1.083       .  S
C2778      C2779   1.414   1_655  A
C2779      C2780   1.406       .  A
C2779      C2783   1.505       .  S
C2780      H2784   1.084       .  S
C2781      H2791   1.111       .  S
C2781      H2792   1.110       .  S
C2781      H2793   1.108       .  S
C2783      H2794   1.110       .  S
C2783      H2795   1.107       .  S
C2783      H2796   1.110       .  S
