geometry optimzed in LAMMPS
_audit_creation_date              2020-11-30 
_audit_creation_method            'lammps2cif' 
_symmetry_space_group_name_H-M    'P1' 
_symmetry_Int_Tables_number       1 
_symmetry_cell_setting            triclinic 
loop_ 
_symmetry_equiv_pos_as_xyz 
  x,y,z 
_cell_length_a                    75.42063267 
_cell_length_b                    75.27277730610915 
_cell_length_c                    75.2622102060037 
_cell_angle_alpha                 89.93586746407058 
_cell_angle_beta                  89.95605169306813 
_cell_angle_gamma                 90.03374625256326 
loop_ 
_atom_site_label 
_atom_site_type_symbol 
_atom_site_fract_x 
_atom_site_fract_y 
_atom_site_fract_z 
_atom_site_charge 
O1          O  0.51594254  0.10449187  0.51956613    -0.72100
O2          O  0.48126488  0.10606680  0.47885324    -0.73100
O3          O  0.47841537  0.10418782  0.51657776    -0.61700
O4          O  0.51895891  0.10640554  0.48191008    -0.70200
O5          O  0.51969362  0.07699144  0.48141369    -0.69700
O6          O  0.47846747  0.07481415  0.51464905    -0.61000
O7          O  0.48262373  0.07667598  0.47735805    -0.73500
O8          O  0.51558831  0.07504835  0.51872835    -0.72300
Cu9        Cu  0.49864169  0.10635192  0.49927318     1.04600
Cu10       Cu  0.49910971  0.07489981  0.49797790     1.04300
C11         C  0.52102385  0.08949843  0.52572896     0.94000
C12         C  0.47661816  0.09144675  0.47157339     0.93200
C13         C  0.47200793  0.08910696  0.52108123     0.85300
C14         C  0.52577633  0.09195699  0.47619158     0.91600
O15         O  0.07783589  0.47746534  0.48310601    -0.72100
O16         O  0.07904262  0.51351367  0.52202204    -0.73100
O17         O  0.07801194  0.51509492  0.48454286    -0.61700
O18         O  0.07922550  0.47587941  0.52060612    -0.70200
O19         O  0.10857457  0.47577591  0.51974192    -0.69700
O20         O  0.10736528  0.51526442  0.48382050    -0.61000
O21         O  0.10839479  0.51366587  0.52155796    -0.73500
O22         O  0.10717782  0.47749022  0.48196815    -0.72300
Cu23       Cu  0.07754340  0.49548017  0.50261124     1.04600
Cu24       Cu  0.10892164  0.49554420  0.50174013     1.04300
C25         C  0.09224753  0.47175637  0.47627958     0.94000
C26         C  0.09375725  0.51940999  0.52796958     0.93200
C27         C  0.09252979  0.52146059  0.47847914     0.85300
C28         C  0.09404682  0.46954203  0.52587840     0.91600
O29         O  0.47982711  0.89105882  0.52326255    -0.72100
O30         O  0.50990868  0.89230225  0.47931168    -0.73100
O31         O  0.51694748  0.89210122  0.51652686    -0.61700
O32         O  0.47282856  0.89144529  0.48622410    -0.70200
O33         O  0.47239954  0.92085562  0.48631122    -0.69700
O34         O  0.51578272  0.92148927  0.51732326    -0.61000
O35         O  0.50961870  0.92173133  0.48007743    -0.73500
O36         O  0.47869273  0.92045459  0.52349191    -0.72300
Cu37       Cu  0.49490995  0.89070646  0.50131941     1.04600
Cu38       Cu  0.49410927  0.92214587  0.50179985     1.04300
C39         C  0.47435134  0.90549437  0.53028020     0.94000
C40         C  0.51465116  0.90724897  0.47279199     0.93200
C41         C  0.52325763  0.90694765  0.52187315     0.85300
C42         C  0.46561752  0.90606614  0.48145059     0.91600
O43         O  0.92280557  0.51949736  0.50889745    -0.72100
O44         O  0.92318614  0.47731761  0.47618984    -0.73100
O45         O  0.92159154  0.51460527  0.47150427    -0.61700
O46         O  0.92452939  0.48195327  0.51349467    -0.70200
O47         O  0.89523739  0.48046374  0.51472841    -0.69700
O48         O  0.89227176  0.51381130  0.47296273    -0.61000
O49         O  0.89385420  0.47638982  0.47722801    -0.73500
O50         O  0.89351794  0.51814757  0.51055340    -0.72300
Cu51       Cu  0.92403167  0.49840778  0.49251527     1.04600
Cu52       Cu  0.89269876  0.49718362  0.49393387     1.04300
C53         C  0.90814415  0.52553140  0.51493519     0.94000
C54         C  0.90853729  0.47024911  0.47138792     0.93200
C55         C  0.90647376  0.51934891  0.46549702     0.85300
C56         C  0.91043628  0.47571958  0.52058236     0.91600
O57         O  0.48172185  0.47890368  0.11260633    -0.72100
O58         O  0.52311638  0.51297134  0.10981495    -0.73100
O59         O  0.48555928  0.51687088  0.11080958    -0.61700
O60         O  0.51920109  0.47531425  0.11169764    -0.70200
O61         O  0.51825596  0.47427689  0.08229375    -0.69700
O62         O  0.48495838  0.51546938  0.08143492    -0.61000
O63         O  0.52208415  0.51156549  0.08044431    -0.73500
O64         O  0.48101977  0.47802002  0.08320148    -0.72300
Cu65       Cu  0.50239861  0.49607932  0.11229542     1.04600
Cu66       Cu  0.50152040  0.49479337  0.08087662     1.04300
C67         C  0.47503568  0.47281919  0.09822246     0.94000
C68         C  0.52914259  0.51764427  0.09461163     0.93200
C69         C  0.48012321  0.52291153  0.09587954     0.85300
C70         C  0.52402174  0.46820671  0.09705520     0.91600
O71         O  0.48394187  0.51123725  0.92445823    -0.72100
O72         O  0.52406365  0.47641277  0.92288024    -0.73100
O73         O  0.52129786  0.51388397  0.92313092    -0.61700
O74         O  0.48669590  0.47358394  0.92405817    -0.70200
O75         O  0.48590000  0.47349013  0.89464522    -0.69700
O76         O  0.52006517  0.51447906  0.89371732    -0.61000
O77         O  0.52348379  0.47679287  0.89346244    -0.73500
O78         O  0.48256781  0.51126205  0.89506162    -0.72300
Cu79       Cu  0.50401043  0.49376826  0.92462602     1.04600
Cu80       Cu  0.50295236  0.49400647  0.89317970     1.04300
C81         C  0.47695736  0.51691096  0.91007388     0.94000
C82         C  0.53023639  0.47111563  0.90798643     0.93200
C83         C  0.52611913  0.52064753  0.90831403     0.85300
C84         C  0.48094454  0.46696745  0.90952906     0.91600
O85         O  0.01658975  0.57117115  0.02220864    -0.72100
O86         O  0.98139825  0.57242506  0.98260188    -0.73100
O87         O  0.01883993  0.57209831  0.98466838    -0.61700
O88         O  0.97926169  0.57153825  0.02014597    -0.70200
O89         O  0.97916970  0.60096238  0.02063863    -0.69700
O90         O  0.01932786  0.60150239  0.98531127    -0.61000
O91         O  0.98161917  0.60183587  0.98284471    -0.73500
O92         O  0.01677601  0.60057635  0.02319951    -0.72300
Cu93       Cu  0.99902452  0.57083073  0.00237843     1.04600
Cu94       Cu  0.99924884  0.60227582  0.00302470     1.04300
C95         C  0.02216471  0.58559377  0.02914591     0.94000
C96         C  0.97590420  0.58721029  0.97635569     0.93200
C97         C  0.02537039  0.58682399  0.97928469     0.85300
C98         C  0.97291178  0.58611225  0.02604277     0.91600
O99         O  0.60683123  0.97759727  0.01776524    -0.72100
O100        O  0.60736667  0.01314633  0.97766590    -0.73100
O101        O  0.60725179  0.01550341  0.01538631    -0.61700
O102        O  0.60688798  0.97511783  0.98009390    -0.70200
O103        O  0.57754199  0.97581375  0.98012469    -0.69700
O104        O  0.57789364  0.01569907  0.01528729    -0.61000
O105        O  0.57801386  0.01351872  0.97774322    -0.73500
O106        O  0.57747501  0.97811067  0.01758744    -0.72300
Cu107      Cu  0.60812752  0.99533371  0.99770530     1.04600
Cu108      Cu  0.57674943  0.99579422  0.99765629     1.04300
C109        C  0.59200565  0.97215108  0.02397231     0.94000
C110        C  0.59275126  0.01917932  0.97152564     0.93200
C111        C  0.59257752  0.02198509  0.02093710     0.85300
C112        C  0.59203762  0.96892468  0.97469461     0.91600
O113        O  0.01356207  0.41191026  0.98019433    -0.72100
O114        O  0.98103792  0.41288125  0.02198890    -0.73100
O115        O  0.01816692  0.41237098  0.01730059    -0.61700
O116        O  0.97664120  0.41228962  0.98478975    -0.70200
O117        O  0.97598900  0.38286709  0.98489430    -0.69700
O118        O  0.01770235  0.38292579  0.01823474    -0.61000
O119        O  0.98009895  0.38349615  0.02266119    -0.73500
O120        O  0.01341977  0.38248803  0.98035228    -0.72300
Cu121      Cu  0.99735105  0.41331234  0.00108257     1.04600
Cu122      Cu  0.99679896  0.38185341  0.00158164     1.04300
C123        C  0.01861239  0.39718746  0.97350431     0.94000
C124        C  0.97530648  0.39853203  0.02899406     0.93200
C125        C  0.02455808  0.39772566  0.02295639     0.85300
C126        C  0.96985488  0.39771561  0.97941452     0.91600
O127        O  0.39677692  0.00823209  0.97889940    -0.72100
O128        O  0.39290735  0.97510499  0.02077505    -0.73100
O129        O  0.39446297  0.01276986  0.01646670    -0.61700
O130        O  0.39534814  0.97088229  0.98305014    -0.70200
O131        O  0.42464213  0.97013572  0.98483217    -0.69700
O132        O  0.42372225  0.01148983  0.01833826    -0.61000
O133        O  0.42219301  0.97404125  0.02240147    -0.73500
O134        O  0.42607039  0.00750564  0.98092873    -0.72300
Cu135      Cu  0.39384295  0.99174991  0.99975907     1.04600
Cu136      Cu  0.42514439  0.99073069  0.00172044     1.04300
C137        C  0.41202401  0.01310493  0.97326593     0.94000
C138        C  0.40697983  0.96935830  0.02829663     0.93200
C139        C  0.40906085  0.01878646  0.02269825     0.85300
C140        C  0.41018707  0.96418757  0.97827841     0.91600
O141        O  0.01999741  0.97407673  0.57405709    -0.72100
O142        O  0.98587158  0.01502276  0.57235385    -0.73100
O143        O  0.02321710  0.01169941  0.57316151    -0.61700
O144        O  0.98270375  0.97745933  0.57337377    -0.70200
O145        O  0.98171816  0.97818330  0.60277449    -0.69700
O146        O  0.02281226  0.01199535  0.60261784    -0.61000
O147        O  0.98540525  0.01596553  0.60176014    -0.73500
O148        O  0.01919281  0.97446102  0.60346267    -0.72300
Cu149      Cu  0.00294963  0.99454340  0.57223222     1.04600
Cu150      Cu  0.00224420  0.99519065  0.60368625     1.04300
C151        C  0.02496523  0.96768521  0.58899375     0.94000
C152        C  0.98034375  0.02212406  0.58674121     0.93200
C153        C  0.02947969  0.01724335  0.58791617     0.85300
C154        C  0.97588267  0.97221069  0.58800534     0.91600
O155        O  0.98595033  0.97288826  0.39327849    -0.72100
O156        O  0.01854519  0.01544585  0.39450885    -0.73100
O157        O  0.02346311  0.97769300  0.39427889    -0.61700
O158        O  0.98105389  0.01057274  0.39336530    -0.70200
O159        O  0.98038052  0.01016230  0.42276871    -0.69700
O160        O  0.02262348  0.97778537  0.42367766    -0.61000
O161        O  0.01745914  0.01508863  0.42391074    -0.73500
O162        O  0.98555849  0.97279859  0.42271572    -0.72300
Cu163      Cu  0.00229005  0.99417299  0.39279570     1.04600
Cu164      Cu  0.00147621  0.99396010  0.42423482     1.04300
C165        C  0.98075419  0.96601204  0.40793800     0.94000
C166        C  0.02305119  0.02207125  0.40949099     0.93200
C167        C  0.02966330  0.97240426  0.40920180     0.85300
C168        C  0.97404121  0.01562853  0.40799849     0.91600
N169        N  0.64932849  0.90908503  0.62488012    -0.26500
N170        N  0.64925801  0.92613393  0.62100951    -0.34400
C171        C  0.63779870  0.92910284  0.60769723     0.01800
C172        C  0.63013711  0.91304381  0.60284267     0.07900
C173        C  0.63792007  0.90058069  0.61407155    -0.05200
H174        H  0.63468366  0.94215052  0.60255053     0.08500
H175        H  0.63541766  0.88645433  0.61460217     0.09700
Cu176      Cu  0.66354899  0.94411221  0.63589024     0.44200
Cu177      Cu  0.66473546  0.89982392  0.64561989     0.42000
Cu178      Cu  0.68872025  0.93155330  0.67562834     0.43900
N179        N  0.67372452  0.96195329  0.65397703    -0.33900
N180        N  0.68234843  0.95825172  0.66883985    -0.28100
C181        C  0.68427106  0.97363888  0.67810209    -0.04200
C182        C  0.67634129  0.98737881  0.66848619     0.08000
C183        C  0.66995519  0.97929547  0.65337240     0.01800
H184        H  0.68981147  0.97454057  0.69132271     0.09400
H185        H  0.66201818  0.98540472  0.64307210     0.08500
N186        N  0.69107058  0.90335810  0.67641868    -0.35300
N187        N  0.68227245  0.89271805  0.66551402    -0.27500
C188        C  0.68646322  0.87576587  0.66896266    -0.02800
C189        C  0.69861417  0.87521932  0.68265836     0.05900
C190        C  0.70113453  0.89303723  0.68721994     0.04000
H191        H  0.68063072  0.86459201  0.66210099     0.09100
H192        H  0.70974091  0.89809588  0.69753583     0.07900
N193        N  0.62739321  0.08467064  0.64829851    -0.26500
N194        N  0.62424329  0.06746074  0.64786723    -0.34400
C195        C  0.61155942  0.06408928  0.63587173     0.01800
C196        C  0.60629788  0.08002095  0.62836074     0.07900
C197        C  0.61660808  0.09287700  0.63662240    -0.05200
H198        H  0.60687794  0.05092286  0.63253926     0.08500
H199        H  0.61692297  0.10695427  0.63373793     0.09700
Cu200      Cu  0.63902678  0.04946542  0.66210662     0.44200
Cu201      Cu  0.64771078  0.09450698  0.66388455     0.42000
Cu202      Cu  0.67939704  0.06162462  0.68456564     0.43900
N203        N  0.65694993  0.03121989  0.67163249    -0.33900
N204        N  0.67229600  0.03488861  0.67927504    -0.28100
C205        C  0.68153174  0.01946970  0.68087965    -0.04200
C206        C  0.67136060  0.00570118  0.67376654     0.08000
C207        C  0.65596021  0.01383058  0.66817301     0.01800
H208        H  0.69506433  0.01856189  0.68553585     0.09400
H209        H  0.64522540  0.00773009  0.66084748     0.08500
N210        N  0.68052885  0.08965766  0.68737012    -0.35300
N211        N  0.66892437  0.10077341  0.68017825    -0.27500
C212        C  0.67292690  0.11747133  0.68491449    -0.02800
C213        C  0.68776291  0.11722088  0.69563139     0.05900
C214        C  0.69237574  0.09934430  0.69678424     0.04000
H215        H  0.66563717  0.12904322  0.68052556     0.09100
H216        H  0.70336416  0.09378452  0.70415215     0.07900
N217        N  0.91321556  0.64375383  0.62710752    -0.26500
N218        N  0.93030745  0.64297316  0.62361722    -0.34400
C219        C  0.93309873  0.63111346  0.61058399     0.01800
C220        C  0.91685486  0.62417891  0.60543616     0.07900
C221        C  0.90449172  0.63258505  0.61619577    -0.05200
H222        H  0.94603065  0.62750074  0.60551835     0.08500
H223        H  0.89037820  0.63007801  0.61672700     0.09700
Cu224      Cu  0.94833553  0.65734062  0.63842989     0.44200
Cu225      Cu  0.90428977  0.65882715  0.64825074     0.42000
Cu226      Cu  0.93569212  0.68343341  0.67795381     0.43900
N227        N  0.96593858  0.66916779  0.65576102    -0.33900
N228        N  0.96216825  0.67835373  0.67027619    -0.28100
C229        C  0.97755460  0.68151098  0.67907414    -0.04200
C230        C  0.99138108  0.67376795  0.66955604     0.08000
C231        C  0.98339373  0.66621592  0.65496135     0.01800
H232        H  0.97843754  0.68769682  0.69201139     0.09400
H233        H  0.98970192  0.65805586  0.64496035     0.08500
N234        N  0.90779211  0.68297748  0.68079479    -0.35300
N235        N  0.89721847  0.67370506  0.67023672    -0.27500
C236        C  0.88035586  0.67573564  0.67545720    -0.02800
C237        C  0.87988985  0.68684739  0.69001565     0.05900
C238        C  0.89757475  0.69135576  0.69298227     0.04000
H239        H  0.86915759  0.66997434  0.66859505     0.09100
H240        H  0.90261567  0.70006313  0.70323287     0.07900
N241        N  0.08889170  0.63245389  0.64409718    -0.26500
N242        N  0.07313563  0.62561881  0.64740720    -0.34400
C243        C  0.07118525  0.61061924  0.63789727     0.01800
C244        C  0.08653506  0.60790609  0.62807722     0.07900
C245        C  0.09745373  0.62208532  0.63236176    -0.05200
H246        H  0.05909401  0.60290281  0.63735035     0.08500
H247        H  0.11048273  0.62490691  0.62703604     0.09700
Cu248      Cu  0.05471709  0.63912722  0.66274404     0.44200
Cu249      Cu  0.09691848  0.65601445  0.65553742     0.42000
Cu250      Cu  0.06495074  0.68346195  0.68047468     0.43900
N251        N  0.03605966  0.65690532  0.67236477    -0.33900
N252        N  0.03908153  0.67329317  0.67797705    -0.28100
C253        C  0.02329594  0.68174014  0.67963905    -0.04200
C254        C  0.00988877  0.67001849  0.67477702     0.08000
C255        C  0.01859173  0.65451320  0.67037803     0.01800
H256        H  0.02182186  0.69573227  0.68255783     0.09400
H257        H  0.01273933  0.64277257  0.66451960     0.08500
N258        N  0.09260019  0.68724794  0.68075960    -0.35300
N259        N  0.10364476  0.67740752  0.67129244    -0.27500
C260        C  0.12038797  0.68201647  0.67505701    -0.02800
C261        C  0.12021084  0.69546820  0.68753575     0.05900
C262        C  0.10229061  0.69842014  0.69092160     0.04000
H263        H  0.13185862  0.67513576  0.66988106     0.09100
H264        H  0.09673056  0.70760986  0.70045339     0.07900
N265        N  0.62829375  0.64641037  0.91173035    -0.26500
N266        N  0.62429694  0.64714716  0.92874150    -0.34400
C267        C  0.61133136  0.63539958  0.93220782     0.01800
C268        C  0.60689926  0.62685836  0.91647434     0.07900
C269        C  0.61796763  0.63427919  0.90376267    -0.05200
H270        H  0.60651888  0.63243400  0.94541696     0.08500
H271        H  0.61903056  0.63063504  0.88990838     0.09700
Cu272      Cu  0.63947058  0.66175792  0.94620043     0.44200
Cu273      Cu  0.64941933  0.66024026  0.90151097     0.42000
Cu274      Cu  0.68205809  0.68082026  0.93152570     0.43900
N275        N  0.65930709  0.67022510  0.96301205    -0.26700
N276        N  0.67511052  0.67634487  0.95836080    -0.28100
C277        C  0.68532389  0.67718411  0.97315136    -0.04200
C278        C  0.67533276  0.67127572  0.98755013     0.08000
C279        C  0.65903707  0.66703151  0.98050207     0.01800
H280        H  0.69929671  0.68044117  0.97318842     0.09400
H281        H  0.64815083  0.66064042  0.98737554     0.08500
N282        N  0.68275250  0.68271009  0.90352228    -0.35300
N283        N  0.67083362  0.67494558  0.89325717    -0.27500
C284        C  0.67421581  0.67868894  0.87620631    -0.02800
C285        C  0.68897808  0.68954360  0.87524492     0.05900
C286        C  0.69410968  0.69177422  0.89294909     0.04000
H287        H  0.66625414  0.67378471  0.86532839     0.09100
H288        H  0.70494916  0.69973749  0.89790460     0.07900
N289        N  0.65009081  0.62564145  0.08308271    -0.26500
N290        N  0.65218267  0.61971382  0.06673421    -0.34400
C291        C  0.64096621  0.60608655  0.06402355     0.01800
C292        C  0.63132578  0.60326797  0.07950250     0.07900
C293        C  0.63750134  0.61599382  0.09127942    -0.05200
H294        H  0.63934358  0.59940050  0.05141985     0.08500
H295        H  0.63300377  0.61829237  0.10473148     0.09700
Cu296      Cu  0.66844277  0.63251987  0.04858846     0.44200
Cu297      Cu  0.66389438  0.64733029  0.09258999     0.42000
Cu298      Cu  0.68873334  0.67495783  0.06105383     0.43900
N299        N  0.67871504  0.65072562  0.03066990    -0.33900
N300        N  0.68526517  0.66654425  0.03465462    -0.28100
C301        C  0.68693102  0.67602514  0.01944374    -0.04200
C302        C  0.68119126  0.66557234  0.00536137     0.08000
C303        C  0.67612274  0.64972676  0.01309267     0.01800
H304        H  0.69038411  0.68996784  0.01888978     0.09400
H305        H  0.66929490  0.63887756  0.00660357     0.08500
N306        N  0.68918557  0.67841764  0.08877040    -0.35300
N307        N  0.67965926  0.66857926  0.09981361    -0.27500
C308        C  0.68253120  0.67395276  0.11656547    -0.02800
C309        C  0.69461701  0.68771987  0.11628407     0.05900
C310        C  0.69863178  0.69021228  0.09842720     0.04000
H311        H  0.67660961  0.66789524  0.12818867     0.09100
H312        H  0.70766070  0.69991463  0.09287648     0.07900
N313        N  0.90761290  0.62977552  0.34660178    -0.26500
N314        N  0.92171073  0.62081852  0.34142925    -0.34400
C315        C  0.92320220  0.60606839  0.35137580     0.01800
C316        C  0.90933733  0.60574190  0.36347652     0.07900
C317        C  0.89966332  0.62101410  0.36000740    -0.05200
H318        H  0.93403834  0.59670714  0.35041201     0.08500
H319        H  0.88782131  0.62552614  0.36673678     0.09700
Cu320      Cu  0.93923785  0.63089566  0.32282487     0.44200
Cu321      Cu  0.90097993  0.65365381  0.33495740     0.42000
Cu322      Cu  0.93318673  0.67536704  0.30477213     0.43900
N323        N  0.95936344  0.64592075  0.31173671    -0.33900
N324        N  0.95802449  0.66254751  0.30617867    -0.28100
C325        C  0.97462546  0.66925690  0.30430753    -0.04200
C326        C  0.98678218  0.65617139  0.30909236     0.08000
C327        C  0.97648902  0.64161950  0.31343058     0.01800
H328        H  0.97756190  0.68301393  0.30134561     0.09400
H329        H  0.98103165  0.62926142  0.31918958     0.08500
N330        N  0.90635985  0.68289886  0.30754500    -0.35300
N331        N  0.89543352  0.67523404  0.31900295    -0.27500
C332        C  0.87922891  0.68234148  0.31742129    -0.02800
C333        C  0.87961027  0.69518110  0.30431552     0.05900
C334        C  0.89706378  0.69511173  0.29821263     0.04000
H335        H  0.86772783  0.67759554  0.32459015     0.09100
H336        H  0.90248440  0.70304444  0.28751497     0.07900
N337        N  0.08334612  0.63601010  0.36328412    -0.26500
N338        N  0.06741054  0.62916813  0.36116208    -0.34400
C339        C  0.06555414  0.61505098  0.37190338     0.01800
C340        C  0.08120417  0.61277620  0.38127134     0.07900
C341        C  0.09218749  0.62642955  0.37552121    -0.05200
H342        H  0.05352038  0.60731482  0.37304209     0.08500
H343        H  0.10563751  0.62908426  0.37974355     0.09700
Cu344      Cu  0.04932038  0.63987452  0.34368885     0.44200
Cu345      Cu  0.09135022  0.65752932  0.34820506     0.42000
Cu346      Cu  0.06004244  0.67653123  0.31426098     0.43900
N347        N  0.03135454  0.65170059  0.32681177    -0.33900
N348        N  0.03432511  0.66548771  0.31631501    -0.28100
C349        C  0.01887254  0.66968272  0.30805984    -0.04200
C350        C  0.00587081  0.65769354  0.31358527     0.08000
C351        C  0.01442873  0.64662165  0.32540019     0.01800
H352        H  0.01726314  0.68043984  0.29865563     0.09400
H353        H  0.00869414  0.63575035  0.33285612     0.08500
N354        N  0.08750597  0.68212619  0.31607112    -0.35300
N355        N  0.09798244  0.67573919  0.32869056    -0.27500
C356        C  0.11461612  0.68144871  0.32599732    -0.02800
C357        C  0.11501790  0.69181272  0.31087363     0.05900
C358        C  0.09755812  0.69195619  0.30485438     0.04000
H359        H  0.12582776  0.67761003  0.33409961     0.09100
H360        H  0.09254766  0.69861649  0.29315249     0.07900
N361        N  0.62144836  0.90743278  0.34971775    -0.26500
N362        N  0.61677352  0.92422183  0.34832390    -0.34400
C363        C  0.60387234  0.92775055  0.36005461     0.01800
C364        C  0.59995328  0.91232968  0.36938984     0.07900
C365        C  0.61145442  0.89964797  0.36237657    -0.05200
H366        H  0.59811431  0.94077605  0.36184326     0.08500
H367        H  0.61251524  0.88579998  0.36600241     0.09700
Cu368      Cu  0.62924129  0.94153822  0.33128777     0.44200
Cu369      Cu  0.64174355  0.89740830  0.33401303     0.42000
Cu370      Cu  0.66919596  0.92977596  0.30764657     0.43900
N371        N  0.64579496  0.95973063  0.31950115    -0.33900
N372        N  0.66100827  0.95619446  0.31152515    -0.28100
C373        C  0.66971475  0.97173130  0.30883797    -0.04200
C374        C  0.65936330  0.98543556  0.31564112     0.08000
C375        C  0.64436258  0.97721816  0.32211291     0.01800
H376        H  0.68310753  0.97280400  0.30379317     0.09400
H377        H  0.63375998  0.98334580  0.32961306     0.08500
N378        N  0.67175517  0.90192384  0.30691600    -0.35300
N379        N  0.66183187  0.89079489  0.31629319    -0.27500
C380        C  0.66653705  0.87403648  0.31246108    -0.02800
C381        C  0.68003281  0.87433605  0.30000706     0.05900
C382        C  0.68310658  0.89230034  0.29690905     0.04000
H383        H  0.66062867  0.86247576  0.31861310     0.09100
H384        H  0.69270205  0.89796284  0.28783457     0.07900
N385        N  0.63145202  0.08365719  0.35400496    -0.26500
N386        N  0.63427901  0.06779432  0.36086544    -0.34400
C387        C  0.62519354  0.06619952  0.37609543     0.01800
C388        C  0.61629833  0.08197659  0.37915808     0.07900
C389        C  0.62043117  0.09273303  0.36475602    -0.05200
H390        H  0.62498487  0.05432315  0.38419122     0.08500
H391        H  0.61617698  0.10627532  0.36251937     0.09700
Cu392      Cu  0.65021975  0.04925305  0.34880987     0.44200
Cu393      Cu  0.64456732  0.09160712  0.33120570     0.42000
Cu394      Cu  0.67439991  0.05893973  0.30871500     0.43900
N395        N  0.66117495  0.03011487  0.33278013    -0.33900
N396        N  0.66946925  0.03293607  0.31756035    -0.28100
C397        C  0.67162696  0.01709778  0.30928458    -0.04200
C398        C  0.66415132  0.00394343  0.31992401     0.08000
C399        C  0.65782208  0.01278757  0.33463742     0.01800
H400        H  0.67680961  0.01548819  0.29597816     0.09400
H401        H  0.65000627  0.00721958  0.34534777     0.08500
N402        N  0.67507260  0.08662811  0.30505839    -0.35300
N403        N  0.66373046  0.09782954  0.31249219    -0.27500
C404        C  0.66789459  0.11449607  0.30769925    -0.02800
C405        C  0.68268828  0.11401167  0.29691694     0.05900
C406        C  0.68693986  0.09611528  0.29551798     0.04000
H407        H  0.66113109  0.12623444  0.31248122     0.09100
H408        H  0.69791418  0.09041768  0.28822986     0.07900
N409        N  0.91446816  0.35811824  0.63378512    -0.26500
N410        N  0.93002784  0.35425191  0.62681079    -0.34400
C411        C  0.93371284  0.36590663  0.61378963     0.01800
C412        C  0.91974513  0.37782318  0.61240423     0.07900
C413        C  0.90772692  0.37237584  0.62534376    -0.05200
H414        H  0.94587745  0.36588629  0.60617250     0.08500
H415        H  0.89489961  0.37806500  0.62826654     0.09700
Cu416      Cu  0.94586667  0.33417867  0.63672415     0.44200
Cu417      Cu  0.90390785  0.34299954  0.65429614     0.42000
Cu418      Cu  0.93411027  0.31118372  0.67721869     0.43900
N419        N  0.96379130  0.32017080  0.65200645    -0.33900
N420        N  0.96036584  0.31257468  0.66748590    -0.28100
C421        C  0.97603738  0.30852057  0.67536841    -0.04200
C422        C  0.98978973  0.31395537  0.66421958     0.08000
C423        C  0.98134766  0.32112139  0.64960577     0.01800
H424        H  0.97733951  0.30363026  0.68882590     0.09400
H425        H  0.98755160  0.32822892  0.63874628     0.08500
N426        N  0.90636622  0.31263687  0.68106952    -0.35300
N427        N  0.89588337  0.32399187  0.67265962    -0.27500
C428        C  0.87893490  0.32077610  0.67718525    -0.02800
C429        C  0.87845182  0.30680731  0.68913992     0.05900
C430        C  0.89614618  0.30200187  0.69132180     0.04000
H431        H  0.86772005  0.32808019  0.67199904     0.09100
H432        H  0.90119220  0.29116472  0.69928907     0.07900
N433        N  0.08870901  0.35542779  0.64143518    -0.26500
N434        N  0.07249853  0.36166222  0.64327116    -0.34400
C435        C  0.07039991  0.37581554  0.63261080     0.01800
C436        C  0.08613606  0.37858759  0.62352638     0.07900
C437        C  0.09746386  0.36533871  0.62939707    -0.05200
H438        H  0.05804908  0.38291085  0.63087069     0.08500
H439        H  0.11093631  0.36294002  0.62508273     0.09700
Cu440      Cu  0.05384869  0.34820995  0.65804139     0.44200
Cu441      Cu  0.09669286  0.33338182  0.65562739     0.42000
Cu442      Cu  0.06369890  0.30636140  0.68087201     0.43900
N443        N  0.03492235  0.33038838  0.66649194    -0.33900
N444        N  0.03760767  0.31499413  0.67457182    -0.28100
C445        C  0.02168062  0.30665855  0.67611638    -0.04200
C446        C  0.00869889  0.31737832  0.66838237     0.08000
C447        C  0.01774384  0.33215269  0.66250584     0.01800
H448        H  0.01984072  0.29344762  0.68148318     0.09400
H449        H  0.01231733  0.34324641  0.65514533     0.08500
N450        N  0.09171493  0.30379029  0.68301277    -0.35300
N451        N  0.10290764  0.31361934  0.67362742    -0.27500
C452        C  0.11959537  0.30995795  0.67850500    -0.02800
C453        C  0.11934889  0.29718204  0.69166679     0.05900
C454        C  0.10137459  0.29342680  0.69412939     0.04000
H455        H  0.13113808  0.31652268  0.67302884     0.09100
H456        H  0.09572428  0.28442963  0.70381401     0.07900
N457        N  0.36624321  0.90580521  0.65078597    -0.26500
N458        N  0.37327056  0.92145245  0.65423495    -0.34400
C459        C  0.38793341  0.92358038  0.64433635     0.01800
C460        C  0.39034420  0.90842390  0.63415456     0.07900
C461        C  0.37622534  0.89744012  0.63856165    -0.05200
H462        H  0.39568887  0.93566033  0.64394468     0.08500
H463        H  0.37329603  0.88444798  0.63317253     0.09700
Cu464      Cu  0.36093681  0.93954129  0.67076998     0.44200
Cu465      Cu  0.34344445  0.89766058  0.66351729     0.42000
Cu466      Cu  0.31848719  0.92976032  0.69160778     0.43900
N467        N  0.34436806  0.95853274  0.68158778    -0.33900
N468        N  0.32839939  0.95573655  0.68832240    -0.28100
C469        C  0.32027797  0.97168533  0.69035415    -0.04200
C470        C  0.33180015  0.98494020  0.68453048     0.08000
C471        C  0.34685004  0.97597091  0.67924115     0.01800
H472        H  0.30655081  0.97336551  0.69417625     0.09400
H473        H  0.35823196  0.98160068  0.67251729     0.08500
N474        N  0.31509210  0.90195711  0.69207790    -0.35300
N475        N  0.32412391  0.89097107  0.68174587    -0.27500
C476        C  0.31998386  0.87416063  0.68587883    -0.02800
C477        C  0.30769370  0.87421911  0.69947469     0.05900
C478        C  0.30479253  0.89213609  0.70305118     0.04000
H479        H  0.32578913  0.86267538  0.67950594     0.09100
H480        H  0.29636505  0.89762672  0.71329557     0.07900
N481        N  0.35647802  0.08158770  0.63514225    -0.26500
N482        N  0.35715049  0.06436130  0.63214491    -0.34400
C483        C  0.36896329  0.06108944  0.61921499     0.01800
C484        C  0.37609147  0.07712955  0.61371006     0.07900
C485        C  0.36773258  0.08990849  0.62399851    -0.05200
H486        H  0.37225322  0.04797200  0.61437936     0.08500
H487        H  0.37018244  0.10407090  0.62390083     0.09700
Cu488      Cu  0.34289829  0.04652180  0.64718077     0.44200
Cu489      Cu  0.34099859  0.09146181  0.65554551     0.42000
Cu490      Cu  0.31763307  0.05949011  0.68614084     0.43900
N491        N  0.33202146  0.02882175  0.66495295    -0.33900
N492        N  0.32311949  0.03275169  0.67957685    -0.28100
C493        C  0.32033051  0.01744939  0.68874269    -0.04200
C494        C  0.32804505  0.00351385  0.67930922     0.08000
C495        C  0.33518832  0.01137048  0.66440123     0.01800
H496        H  0.31428783  0.01669531  0.70176290     0.09400
H497        H  0.34310345  0.00498076  0.65425387     0.08500
N498        N  0.31580113  0.08752040  0.68720892    -0.35300
N499        N  0.32428539  0.09838255  0.67623635    -0.27500
C500        C  0.31993840  0.11523239  0.67999979    -0.02800
C501        C  0.30807340  0.11535351  0.69399200     0.05900
C502        C  0.30579864  0.09748333  0.69830492     0.04000
H503        H  0.32507880  0.12661844  0.67288220     0.09100
H504        H  0.29712390  0.09205596  0.70838634     0.07900
N505        N  0.64531828  0.35643010  0.91048290    -0.26500
N506        N  0.64743480  0.36242380  0.92677419    -0.34400
C507        C  0.63744733  0.37695351  0.92911702     0.01800
C508        C  0.62853671  0.38048535  0.91343738     0.07900
C509        C  0.63377045  0.36706750  0.90186560    -0.05200
H510        H  0.63615461  0.38388982  0.94162510     0.08500
H511        H  0.62941588  0.36511058  0.88831435     0.09700
Cu512      Cu  0.66218635  0.34898793  0.94536261     0.44200
Cu513      Cu  0.65886055  0.33375615  0.90264987     0.42000
Cu514      Cu  0.68657636  0.30886752  0.93662761     0.43900
N515        N  0.67121055  0.33229598  0.96497152    -0.33900
N516        N  0.67998035  0.31728681  0.96258013    -0.28100
C517        C  0.68129128  0.30896053  0.97853963    -0.04200
C518        C  0.67267118  0.31929743  0.99125895     0.08000
C519        C  0.66657784  0.33388095  0.98204318     0.01800
H520        H  0.68685504  0.29586146  0.98048753     0.09400
H521        H  0.65839341  0.34450531  0.98717932     0.08500
N522        N  0.68712029  0.30492412  0.90879779    -0.35300
N523        N  0.67646738  0.31319408  0.89745717    -0.27500
C524        C  0.67959888  0.30724481  0.88097242    -0.02800
C525        C  0.69298464  0.29481903  0.88159121     0.05900
C526        C  0.69758785  0.29369326  0.89945108     0.04000
H527        H  0.67296800  0.31213607  0.86920075     0.09100
H528        H  0.70765664  0.28524442  0.90522321     0.07900
N529        N  0.62622089  0.34266073  0.08939440    -0.26500
N530        N  0.62157413  0.34270703  0.07251466    -0.34400
C531        C  0.60830968  0.35436505  0.07015423     0.01800
C532        C  0.60436753  0.36205262  0.08642093     0.07900
C533        C  0.61608586  0.35432948  0.09831928    -0.05200
H534        H  0.60265227  0.35764192  0.05736538     0.08500
H535        H  0.61737246  0.35716646  0.11234714     0.09700
Cu536      Cu  0.63532616  0.32844689  0.05354237     0.44200
Cu537      Cu  0.64677718  0.32707561  0.09847179     0.42000
Cu538      Cu  0.67572351  0.30474991  0.06544331     0.43900
N539        N  0.65318505  0.31842332  0.03528181    -0.33900
N540        N  0.66824219  0.31020875  0.03899759    -0.28100
C541        C  0.67735738  0.30791192  0.02362765    -0.04200
C542        C  0.66750884  0.31521659  0.00980014     0.08000
C543        C  0.65234493  0.32163962  0.01780662     0.01800
H544        H  0.69062342  0.30252647  0.02276415     0.09400
H545        H  0.64184200  0.32914143  0.01151689     0.08500
N546        N  0.67763387  0.30160549  0.09324199    -0.35300
N547        N  0.66688162  0.30954994  0.10465810    -0.27500
C548        C  0.67084035  0.30433236  0.12122829    -0.02800
C549        C  0.68478494  0.29248320  0.12050312     0.05900
C550        C  0.68892021  0.29119469  0.10252836     0.04000
H551        H  0.66414639  0.30912218  0.13299984     0.09100
H552        H  0.69917029  0.28306145  0.09662905     0.07900
N553        N  0.36254428  0.63233604  0.91614144    -0.26500
N554        N  0.36410555  0.62946976  0.93333326    -0.34400
C555        C  0.37529387  0.61588323  0.93606025     0.01800
C556        C  0.38122712  0.60991426  0.91970050     0.07900
C557        C  0.37284409  0.62070114  0.90731553    -0.05200
H558        H  0.37916301  0.61102041  0.94902219     0.08500
H559        H  0.37395149  0.62004776  0.89300305     0.09700
Cu560      Cu  0.35149608  0.64531119  0.95165956     0.44200
Cu561      Cu  0.34593312  0.65211534  0.90688606     0.42000
Cu562      Cu  0.32372117  0.68296694  0.93918854     0.43900
N563        N  0.34115561  0.66331985  0.96939662    -0.33900
N564        N  0.33108571  0.67723133  0.96571860    -0.28100
C565        C  0.32805825  0.68614772  0.98111244    -0.04200
C566        C  0.33689255  0.67734538  0.99480738     0.08000
C567        C  0.34492554  0.66305280  0.98673119     0.01800
H568        H  0.32075308  0.69846971  0.98212105     0.09400
H569        H  0.35340511  0.65326681  0.99295396     0.08500
N570        N  0.31983442  0.68288691  0.91130272    -0.35300
N571        N  0.32766213  0.67155121  0.90034783    -0.27500
C572        C  0.32192296  0.67438960  0.88371842    -0.02800
C573        C  0.30998177  0.68827573  0.88383189     0.05900
C574        C  0.30900007  0.69341977  0.90158634     0.04000
H575        H  0.32633694  0.66690278  0.87227663     0.09100
H576        H  0.30072553  0.70377269  0.90709721     0.07900
N577        N  0.37208529  0.64428634  0.09142716    -0.26500
N578        N  0.37918886  0.64809826  0.07589465    -0.34400
C579        C  0.39311679  0.63733537  0.07305094     0.01800
C580        C  0.39492850  0.62611266  0.08759789     0.07900
C581        C  0.38134216  0.63106302  0.09905562    -0.05200
H582        H  0.40089591  0.63726388  0.06097079     0.08500
H583        H  0.37827147  0.62553305  0.11195176     0.09700
Cu584      Cu  0.36769885  0.66645489  0.05904937     0.44200
Cu585      Cu  0.34958746  0.65725363  0.10019047     0.42000
Cu586      Cu  0.32427271  0.68563513  0.06856620     0.43900
N587        N  0.35163899  0.67837950  0.04031490    -0.33900
N588        N  0.33535231  0.68438890  0.04285776    -0.28100
C589        C  0.32772471  0.68692404  0.02672654    -0.04200
C590        C  0.33989272  0.68216036  0.01362984     0.08000
C591        C  0.35480988  0.67702629  0.02289401     0.01800
H592        H  0.31390353  0.69020310  0.02473272     0.09400
H593        H  0.36655266  0.67085982  0.01739944     0.08500
N594        N  0.31936953  0.68388159  0.09611959    -0.35300
N595        N  0.32858448  0.67354644  0.10697010    -0.27500
C596        C  0.32328792  0.67629799  0.12374797    -0.02800
C597        C  0.31009444  0.68900741  0.12378886     0.05900
C598        C  0.30782564  0.69346011  0.10597748     0.04000
H599        H  0.32905766  0.66979091  0.13518805     0.09100
H600        H  0.29909349  0.70354040  0.10066481     0.07900
N601        N  0.34220914  0.90481272  0.37557440    -0.26500
N602        N  0.34062383  0.92165137  0.38001416    -0.34400
C603        C  0.35144616  0.92515735  0.39372149     0.01800
C604        C  0.36033741  0.90968058  0.39827578     0.07900
C605        C  0.35415635  0.89701559  0.38635640    -0.05200
H606        H  0.35341848  0.93827049  0.39922022     0.08500
H607        H  0.35828217  0.88329120  0.38534491     0.09700
Cu608      Cu  0.32573324  0.93913577  0.36503362     0.44200
Cu609      Cu  0.32820760  0.89503978  0.35412369     0.42000
Cu610      Cu  0.30563024  0.92695760  0.32290270     0.43900
N611        N  0.31725161  0.95714541  0.34615746    -0.33900
N612        N  0.31061492  0.95335704  0.33034679    -0.28100
C613        C  0.31004529  0.96852205  0.32062008    -0.04200
C614        C  0.31678791  0.98229110  0.33092959     0.08000
C615        C  0.32106631  0.97446811  0.34694125     0.01800
H616        H  0.30651658  0.96916526  0.30670444     0.09400
H617        H  0.32791434  0.98064840  0.35795054     0.08500
N618        N  0.30381492  0.89913135  0.32183695    -0.35300
N619        N  0.31182010  0.88830957  0.33318203    -0.27500
C620        C  0.30769320  0.87147629  0.32923586    -0.02800
C621        C  0.29652722  0.87139962  0.31474561     0.05900
C622        C  0.29444744  0.88917637  0.31022748     0.04000
H623        H  0.31283439  0.86007573  0.33630517     0.09100
H624        H  0.28656404  0.89448153  0.29945508     0.07900
N625        N  0.36503446  0.07835050  0.35415518    -0.26500
N626        N  0.36857886  0.06129036  0.35558227    -0.34400
C627        C  0.38090081  0.05889903  0.36824629     0.01800
C628        C  0.38548864  0.07539844  0.37509141     0.07900
C629        C  0.37505276  0.08743013  0.36579924    -0.05200
H630        H  0.38614984  0.04609188  0.37210093     0.08500
H631        H  0.37441280  0.10166267  0.36756481     0.09700
Cu632      Cu  0.35524551  0.04287971  0.34036236     0.44200
Cu633      Cu  0.34623950  0.08728313  0.33634416     0.42000
Cu634      Cu  0.31759333  0.05546935  0.31176200     0.43900
N635        N  0.33794422  0.02523412  0.32867389    -0.33900
N636        N  0.32379609  0.02901882  0.31897937    -0.28100
C637        C  0.31434369  0.01382682  0.31677008    -0.04200
C638        C  0.32306686  0.00013153  0.32564462     0.08000
C639        C  0.33791471  0.00797346  0.33281670     0.01800
H640        H  0.30146227  0.01310818  0.31049991     0.09400
H641        H  0.34740344  0.00185014  0.34169104     0.08500
N642        N  0.31676532  0.08343831  0.30885134    -0.35300
N643        N  0.32731937  0.09428533  0.31778175    -0.27500
C644        C  0.32367964  0.11115354  0.31340225    -0.02800
C645        C  0.31018363  0.11134924  0.30099207     0.05900
C646        C  0.30601656  0.09345451  0.29849765     0.04000
H647        H  0.33009350  0.12246564  0.31946073     0.09100
H648        H  0.29587441  0.08812579  0.28985573     0.07900
N649        N  0.91113908  0.35277069  0.35883746    -0.26500
N650        N  0.92638873  0.34888774  0.36645350    -0.34400
C651        C  0.92859852  0.35913533  0.38084798     0.01800
C652        C  0.91403799  0.37019907  0.38241444     0.07900
C653        C  0.90316147  0.36576510  0.36819171    -0.05200
H654        H  0.94037711  0.35913563  0.38904447     0.08500
H655        H  0.89047569  0.37154413  0.36482402     0.09700
Cu656      Cu  0.94455347  0.33203755  0.35504517     0.44200
Cu657      Cu  0.90314834  0.33969067  0.33593814     0.42000
Cu658      Cu  0.93626314  0.31110303  0.31276019     0.43900
N659        N  0.96432629  0.32257500  0.33878540    -0.33900
N660        N  0.96199127  0.31515275  0.32304113    -0.28100
C661        C  0.97810946  0.31318477  0.31529678    -0.04200
C662        C  0.99092778  0.31994378  0.32676008     0.08000
C663        C  0.98159674  0.32574679  0.34138656     0.01800
H664        H  0.98020531  0.30852125  0.30186845     0.09400
H665        H  0.98687482  0.33284425  0.35270986     0.08500
N666        N  0.90873962  0.31128821  0.30748720    -0.35300
N667        N  0.89737310  0.32197789  0.31559144    -0.27500
C668        C  0.88092440  0.31862572  0.30967181    -0.02800
C669        C  0.88161027  0.30509782  0.29724997     0.05900
C670        C  0.89955198  0.30076039  0.29620869     0.04000
H671        H  0.86916287  0.32512854  0.31470157     0.09100
H672        H  0.90552865  0.29064673  0.28796666     0.07900
N673        N  0.08857013  0.35964809  0.35795232    -0.26500
N674        N  0.07263323  0.36609303  0.35477556    -0.34400
C675        C  0.06974859  0.38015441  0.36532674     0.01800
C676        C  0.08460694  0.38282478  0.37583955     0.07900
C677        C  0.09635787  0.36953843  0.37064288    -0.05200
H678        H  0.05732653  0.38730026  0.36588204     0.08500
H679        H  0.10950730  0.36699965  0.37572513     0.09700
Cu680      Cu  0.05465240  0.35382331  0.33822724     0.44200
Cu681      Cu  0.09785535  0.33710593  0.34503416     0.42000
Cu682      Cu  0.06521441  0.31186152  0.31802132     0.43900
N683        N  0.03579687  0.33701102  0.32772250    -0.33900
N684        N  0.03907653  0.32126679  0.32068133    -0.28100
C685        C  0.02340487  0.31295080  0.31780095    -0.04200
C686        C  0.00980706  0.32406426  0.32347836     0.08000
C687        C  0.01826445  0.33909421  0.32966260     0.01800
H688        H  0.02207825  0.29938015  0.31327794     0.09400
H689        H  0.01216175  0.35029565  0.33627471     0.08500
N690        N  0.09278090  0.30742250  0.31796160    -0.35300
N691        N  0.10414446  0.31622402  0.32808568    -0.27500
C692        C  0.12067680  0.31056505  0.32458128    -0.02800
C693        C  0.11992748  0.29759126  0.31157623     0.05900
C694        C  0.10199281  0.29602937  0.30761711     0.04000
H695        H  0.13247644  0.31614556  0.33053714     0.09100
H696        H  0.09608578  0.28737002  0.29780576     0.07900
N697        N  0.37289309  0.34607309  0.91431275    -0.26500
N698        N  0.37968893  0.34193590  0.92987859    -0.34400
C699        C  0.39368506  0.35249782  0.93313623     0.01800
C700        C  0.39590109  0.36381147  0.91872571     0.07900
C701        C  0.38239874  0.35931706  0.90705122    -0.05200
H702        H  0.40107384  0.35246399  0.94544162     0.08500
H703        H  0.37949851  0.36537108  0.89434385     0.09700
Cu704      Cu  0.36742336  0.32363911  0.94612328     0.44200
Cu705      Cu  0.35035648  0.33360979  0.90517890     0.42000
Cu706      Cu  0.32276420  0.30726536  0.93665817     0.43900
N707        N  0.35057974  0.31275562  0.96468383    -0.33900
N708        N  0.33379698  0.30818566  0.96241880    -0.28100
C709        C  0.32634339  0.30597168  0.97872034    -0.04200
C710        C  0.33922096  0.30944169  0.99156047     0.08000
C711        C  0.35429444  0.31339883  0.98198486     0.01800
H712        H  0.31243856  0.30329817  0.98103977     0.09400
H713        H  0.36687156  0.31794024  0.98717052     0.08500
N714        N  0.31913461  0.30818713  0.90882810    -0.35300
N715        N  0.32913404  0.31786680  0.89806662    -0.27500
C716        C  0.32431967  0.31496669  0.88118276    -0.02800
C717        C  0.31061321  0.30277080  0.88090646     0.05900
C718        C  0.30761650  0.29879697  0.89877295     0.04000
H719        H  0.33069168  0.32117381  0.86989518     0.09100
H720        H  0.29829467  0.28925613  0.90408596     0.07900
N721        N  0.36916214  0.34912180  0.09198150    -0.26500
N722        N  0.37393696  0.34956918  0.07517416    -0.34400
C723        C  0.38675718  0.36175061  0.07298546     0.01800
C724        C  0.39023972  0.36953768  0.08931787     0.07900
C725        C  0.37878990  0.36110003  0.10111439    -0.05200
H726        H  0.39254570  0.36520646  0.06028727     0.08500
H727        H  0.37737346  0.36354216  0.11519505     0.09700
Cu728      Cu  0.36082356  0.33454428  0.05653053     0.44200
Cu729      Cu  0.34872244  0.33253571  0.09976769     0.42000
Cu730      Cu  0.32163625  0.30731632  0.06580749     0.43900
N731        N  0.34596523  0.32165472  0.03761223    -0.33900
N732        N  0.33149796  0.31199098  0.03995851    -0.28100
C733        C  0.32602046  0.30614143  0.02378292    -0.04200
C734        C  0.33787352  0.31239676  0.01097770     0.08000
C735        C  0.35012226  0.32215712  0.02040441     0.01800
H736        H  0.31468000  0.29761874  0.02158006     0.09400
H737        H  0.36147294  0.32923792  0.01519176     0.08500
N738        N  0.31806827  0.30640902  0.09366337    -0.35300
N739        N  0.32770974  0.31566526  0.10512132    -0.27500
C740        C  0.32206059  0.31236620  0.12168447    -0.02800
C741        C  0.30820245  0.30045203  0.12097013     0.05900
C742        C  0.30608747  0.29677332  0.10298048     0.04000
H743        H  0.32799046  0.31799976  0.13348732     0.09100
H744        H  0.29647759  0.28786371  0.09711449     0.07900
N745        N  0.14591508  0.40496273  0.13019358    -0.26500
N746        N  0.14676829  0.42179879  0.12540042    -0.34400
C747        C  0.13513044  0.42474687  0.11223243     0.01800
C748        C  0.12662849  0.40890316  0.10839284     0.07900
C749        C  0.13385779  0.39658957  0.12001796    -0.05200
H750        H  0.13265421  0.43759956  0.10628484     0.08500
H751        H  0.12998647  0.38284064  0.12162691     0.09700
Cu752      Cu  0.16215355  0.44008931  0.13879297     0.44200
Cu753      Cu  0.16033678  0.39547944  0.15154462     0.42000
Cu754      Cu  0.18533973  0.42771637  0.17926447     0.43900
N755        N  0.17230557  0.45816346  0.15671425    -0.33900
N756        N  0.18006110  0.45425852  0.17198669    -0.28100
C757        C  0.18163373  0.46943164  0.18155615    -0.04200
C758        C  0.17442133  0.48333713  0.17173096     0.08000
C759        C  0.16877876  0.47557859  0.15612557     0.01800
H760        H  0.18618662  0.47002342  0.19516728     0.09400
H761        H  0.16120347  0.48188280  0.14567062     0.08500
N762        N  0.18709883  0.39982213  0.18156489    -0.35300
N763        N  0.17745564  0.38870418  0.17193546    -0.27500
C764        C  0.18112616  0.37194267  0.17675776    -0.02800
C765        C  0.19386640  0.37223133  0.18990103     0.05900
C766        C  0.19743821  0.39015323  0.19262266     0.04000
H767        H  0.17514121  0.36030141  0.17083528     0.09100
H768        H  0.20660956  0.39574218  0.20214341     0.07900
N769        N  0.12631616  0.57967062  0.15329978    -0.26500
N770        N  0.12141109  0.56288572  0.15390311    -0.34400
C771        C  0.10837510  0.56017641  0.14209698     0.01800
C772        C  0.10495909  0.57609925  0.13353810     0.07900
C773        C  0.11656363  0.58823356  0.14105455    -0.05200
H774        H  0.10251527  0.54736182  0.13928486     0.08500
H775        H  0.11805793  0.60213657  0.13773273     0.09700
Cu776      Cu  0.13505540  0.54444866  0.16869808     0.44200
Cu777      Cu  0.14699906  0.58874408  0.16857649     0.42000
Cu778      Cu  0.17551227  0.55612363  0.19236734     0.43900
N779        N  0.15358469  0.52627430  0.17711646    -0.33900
N780        N  0.16865646  0.52981293  0.18537519    -0.28100
C781        C  0.17833960  0.51463801  0.18605375    -0.04200
C782        C  0.16882432  0.50122070  0.17759556     0.08000
C783        C  0.15330648  0.50920833  0.17220811     0.01800
H784        H  0.19175966  0.51377131  0.19103569     0.09400
H785        H  0.14293857  0.50330837  0.16422030     0.08500
N786        N  0.17754701  0.58405637  0.19457690    -0.35300
N787        N  0.16719154  0.59520228  0.18576670    -0.27500
C788        C  0.17146590  0.61195339  0.18993168    -0.02800
C789        C  0.18521980  0.61171902  0.20199605     0.05900
C790        C  0.18882649  0.59374741  0.20463321     0.04000
H791        H  0.16498278  0.62351839  0.18439486     0.09100
H792        H  0.19866699  0.58811174  0.21342619     0.07900
N793        N  0.41104198  0.13904687  0.13246419    -0.26500
N794        N  0.42637492  0.14327678  0.12523555    -0.34400
C795        C  0.42927257  0.13282574  0.11104902     0.01800
C796        C  0.41490439  0.12141169  0.10911809     0.07900
C797        C  0.40361962  0.12577745  0.12306430    -0.05200
H798        H  0.44135408  0.13300841  0.10331136     0.08500
H799        H  0.39104237  0.11965878  0.12627894     0.09700
Cu800      Cu  0.44293354  0.16155953  0.13725242     0.44200
Cu801      Cu  0.40253052  0.15187416  0.15526110     0.42000
Cu802      Cu  0.43436510  0.17889516  0.18203267     0.43900
N803        N  0.46172266  0.17302286  0.15358292    -0.33900
N804        N  0.45975539  0.17811612  0.17028927    -0.28100
C805        C  0.47610058  0.18141833  0.17713653    -0.04200
C806        C  0.48869389  0.17815388  0.16395851     0.08000
C807        C  0.47889734  0.17309841  0.14933909     0.01800
H808        H  0.47866654  0.18493977  0.19082714     0.09400
H809        H  0.48391406  0.16858200  0.13666556     0.08500
N810        N  0.40664607  0.17818294  0.18596523    -0.35300
N811        N  0.39579203  0.16821007  0.17637235    -0.27500
C812        C  0.37901882  0.17115176  0.18149363    -0.02800
C813        C  0.37894602  0.18365281  0.19490664     0.05900
C814        C  0.39675953  0.18787039  0.19742110     0.04000
H815        H  0.36757952  0.16504217  0.17534624     0.09100
H816        H  0.40213818  0.19734084  0.20677763     0.07900
N817        N  0.58810598  0.13734625  0.13561755    -0.26500
N818        N  0.57197598  0.13937216  0.12930141    -0.34400
C819        C  0.56980863  0.12894406  0.11502873     0.01800
C820        C  0.58546398  0.11976952  0.11208287     0.07900
C821        C  0.59683458  0.12547070  0.12547903    -0.05200
H822        H  0.55760246  0.12792122  0.10756041     0.08500
H823        H  0.61048337  0.12160973  0.12753108     0.09700
Cu824      Cu  0.55417527  0.15595517  0.14147360     0.44200
Cu825      Cu  0.59595882  0.15237277  0.15730067     0.42000
Cu826      Cu  0.56333652  0.18370043  0.17968870     0.43900
N827        N  0.53513331  0.16884595  0.15597208    -0.33900
N828        N  0.53734158  0.17862100  0.17037738    -0.28100
C829        C  0.52102673  0.18368329  0.17621052    -0.04200
C830        C  0.50830247  0.17675410  0.16462989     0.08000
C831        C  0.51794084  0.16749608  0.15216740     0.01800
H832        H  0.51862490  0.19190139  0.18774539     0.09400
H833        H  0.51287385  0.15991599  0.14108372     0.08500
N834        N  0.59127576  0.18386254  0.18291434    -0.35300
N835        N  0.60211637  0.17209429  0.17553834    -0.27500
C836        C  0.61882791  0.17549640  0.18057816    -0.02800
C837        C  0.61888227  0.19021586  0.19142813     0.05900
C838        C  0.60118765  0.19529411  0.19263537     0.04000
H839        H  0.63024788  0.16793002  0.17632049     0.09100
H840        H  0.59590213  0.20623392  0.20027496     0.07900
N841        N  0.41434485  0.12239812  0.85313467    -0.26500
N842        N  0.43087667  0.11758968  0.85015090    -0.34400
C843        C  0.43485139  0.10354685  0.86043645     0.01800
C844        C  0.42000186  0.09915966  0.87043824     0.07900
C845        C  0.40723284  0.11146638  0.86534861    -0.05200
H846        H  0.44796128  0.09783801  0.86134328     0.08500
H847        H  0.39392251  0.11280364  0.87051951     0.09700
Cu848      Cu  0.44777811  0.13253188  0.83460684     0.44200
Cu849      Cu  0.40351627  0.14481488  0.84146636     0.42000
Cu850      Cu  0.43402200  0.17586422  0.81847884     0.43900
N851        N  0.46514871  0.15185037  0.82592476    -0.33900
N852        N  0.46078242  0.16803563  0.82064386    -0.28100
C853        C  0.47585090  0.17774612  0.81907434    -0.04200
C854        C  0.49017156  0.16703594  0.82369525     0.08000
C855        C  0.48275524  0.15083017  0.82793718     0.01800
H856        H  0.47623174  0.19182628  0.81620390     0.09400
H857        H  0.48957020  0.13943283  0.83343227     0.08500
N858        N  0.40613594  0.17808535  0.81861827    -0.35300
N859        N  0.39554635  0.16697412  0.82721989    -0.27500
C860        C  0.37859063  0.17159142  0.82436725    -0.02800
C861        C  0.37819846  0.18635923  0.81341494     0.05900
C862        C  0.39596135  0.19004994  0.80995092     0.04000
H863        H  0.36736167  0.16415220  0.82934175     0.09100
H864        H  0.40110990  0.20055897  0.80159646     0.07900
N865        N  0.58878347  0.13890269  0.86075220    -0.26500
N866        N  0.57316010  0.14175432  0.86807019    -0.34400
C867        C  0.57126300  0.13115375  0.88231042     0.01800
C868        C  0.58644167  0.12093016  0.88408865     0.07900
C869        C  0.59733842  0.12631072  0.87016097    -0.05200
H870        H  0.55928561  0.13025644  0.89017778     0.08500
H871        H  0.61037892  0.12132437  0.86689893     0.09700
Cu872      Cu  0.55445535  0.15797318  0.85639424     0.44200
Cu873      Cu  0.59634961  0.15230591  0.83779686     0.42000
Cu874      Cu  0.56349656  0.18125738  0.81491865     0.43900
N875        N  0.53505453  0.16872740  0.84034725    -0.33900
N876        N  0.53766662  0.17693140  0.82500574    -0.28100
C877        C  0.52168533  0.17925904  0.81709051    -0.04200
C878        C  0.50863195  0.17202144  0.82801769     0.08000
C879        C  0.51772001  0.16551967  0.84251899     0.01800
H880        H  0.51987445  0.18428908  0.80374670     0.09400
H881        H  0.51226426  0.15764844  0.85325757     0.08500
N882        N  0.59093944  0.18052239  0.80901025    -0.35300
N883        N  0.60213425  0.16949167  0.81690823    -0.27500
C884        C  0.61853079  0.17218725  0.81048563    -0.02800
C885        C  0.61800922  0.18561353  0.79792703     0.05900
C886        C  0.60023944  0.19069838  0.79742993     0.04000
H887        H  0.63019363  0.16541895  0.81538031     0.09100
H888        H  0.59454401  0.20115533  0.78938801     0.07900
N889        N  0.40647709  0.86379880  0.15208968    -0.26500
N890        N  0.42148469  0.87184357  0.15598169    -0.34400
C891        C  0.42306675  0.88647283  0.14582333     0.01800
C892        C  0.40829363  0.88766906  0.13484944     0.07900
C893        C  0.39798668  0.87303717  0.13937491    -0.05200
H894        H  0.43464558  0.89495688  0.14564272     0.08500
H895        H  0.38545246  0.86907973  0.13366110     0.09700
Cu896      Cu  0.43975300  0.86006431  0.17284518     0.44200
Cu897      Cu  0.39982727  0.84000033  0.16400094     0.42000
Cu898      Cu  0.43233140  0.81602292  0.19251040     0.43900
N899        N  0.45948437  0.84407270  0.18341187    -0.33900
N900        N  0.45774401  0.82776712  0.18978378    -0.28100
C901        C  0.47424976  0.82102931  0.19254607    -0.04200
C902        C  0.48674931  0.83380804  0.18758695     0.08000
C903        C  0.47669389  0.84812347  0.18206009     0.01800
H904        H  0.47695309  0.80764155  0.19702367     0.09400
H905        H  0.48148056  0.86044434  0.17643697     0.08500
N906        N  0.40485647  0.81018380  0.19099673    -0.35300
N907        N  0.39388763  0.81860414  0.18013585    -0.27500
C908        C  0.37738446  0.81234151  0.18231902    -0.02800
C909        C  0.37757040  0.79927159  0.19520432     0.05900
C910        C  0.39525923  0.79832663  0.20054068     0.04000
H911        H  0.36591215  0.81771135  0.17558648     0.09100
H912        H  0.40069127  0.78979741  0.21074747     0.07900
N913        N  0.58378377  0.85697414  0.13924715    -0.26500
N914        N  0.56873623  0.86478894  0.14340615    -0.34400
C915        C  0.56637603  0.87901154  0.13292212     0.01800
C916        C  0.58083764  0.88042957  0.12161240     0.07900
C917        C  0.59159237  0.86607952  0.12595617    -0.05200
H918        H  0.55474017  0.88737841  0.13330827     0.08500
H919        H  0.60424054  0.86265817  0.12010288     0.09700
Cu920      Cu  0.55213160  0.85464357  0.16260892     0.44200
Cu921      Cu  0.59187126  0.83475743  0.15321716     0.42000
Cu922      Cu  0.56074640  0.81353409  0.18619419     0.43900
N923        N  0.53325149  0.84100193  0.17688111    -0.33900
N924        N  0.53517298  0.82543541  0.18480357    -0.28100
C925        C  0.51887834  0.82003127  0.19044627    -0.04200
C926        C  0.50641997  0.83300754  0.18580953     0.08000
C927        C  0.51625939  0.84595691  0.17735782     0.01800
H928        H  0.51623618  0.80755706  0.19709013     0.09400
H929        H  0.51136909  0.85793957  0.17113890     0.08500
N930        N  0.58845495  0.80834803  0.18408746    -0.35300
N931        N  0.59884701  0.81603189  0.17209974    -0.27500
C932        C  0.61573359  0.81127811  0.17493475    -0.02800
C933        C  0.61644822  0.80008438  0.18942152     0.05900
C934        C  0.59884551  0.79829672  0.19483048     0.04000
H935        H  0.62682691  0.81610723  0.16718665     0.09100
H936        H  0.59409391  0.79094977  0.20624119     0.07900
N937        N  0.86703286  0.40882114  0.14992388    -0.26500
N938        N  0.87349463  0.42496198  0.15185908    -0.34400
C939        C  0.88739094  0.42702841  0.14083319     0.01800
C940        C  0.88965151  0.41136562  0.13138825     0.07900
C941        C  0.87651676  0.40008325  0.13760508    -0.05200
H942        H  0.89472690  0.43927786  0.13917518     0.08500
H943        H  0.87388341  0.38660258  0.13340291     0.09700
Cu944      Cu  0.86062927  0.44328386  0.16773238     0.44200
Cu945      Cu  0.84511117  0.40057270  0.16397047     0.42000
Cu946      Cu  0.81838024  0.43124398  0.19057990     0.43900
N947        N  0.84250172  0.46118695  0.17794241    -0.33900
N948        N  0.82706864  0.45761881  0.18560056    -0.28100
C949        C  0.81813686  0.47314651  0.18758163    -0.04200
C950        C  0.82851008  0.48686886  0.18075009     0.08000
C951        C  0.84372378  0.47865501  0.17483699     0.01800
H952        H  0.80463068  0.47418911  0.19231048     0.09400
H953        H  0.85448703  0.48480094  0.16755685     0.08500
N954        N  0.81527979  0.40321063  0.19101968    -0.35300
N955        N  0.82511504  0.39277942  0.18087840    -0.27500
C956        C  0.82106521  0.37574664  0.18400047    -0.02800
C957        C  0.80811926  0.37493074  0.19693456     0.05900
C958        C  0.80453677  0.39269315  0.20097007     0.04000
H959        H  0.82730935  0.36472207  0.17726179     0.09100
H960        H  0.79521585  0.39753950  0.21076243     0.07900
N961        N  0.85086345  0.58421849  0.13339569    -0.26500
N962        N  0.85050859  0.56719781  0.12937504    -0.34400
C963        C  0.86215715  0.56401574  0.11628316     0.01800
C964        C  0.87038086  0.57986604  0.11184474     0.07900
C965        C  0.86281368  0.59246358  0.12296679    -0.05200
H966        H  0.86504352  0.55096454  0.11101909     0.08500
H967        H  0.86589401  0.60647816  0.12366461     0.09700
Cu968      Cu  0.83590457  0.54919780  0.14388999     0.44200
Cu969      Cu  0.83566723  0.59388476  0.15401434     0.42000
Cu970      Cu  0.81537257  0.56119076  0.18575884     0.43900
N971        N  0.82635489  0.53098749  0.16194441    -0.33900
N972        N  0.81948735  0.53463102  0.17769860    -0.28100
C973        C  0.81759540  0.51913493  0.18673720    -0.04200
C974        C  0.82367522  0.50532324  0.17602489     0.08000
C975        C  0.82904551  0.51348410  0.16052499     0.01800
H976        H  0.81347843  0.51814993  0.20047454     0.09400
H977        H  0.83575769  0.50727560  0.14943869     0.08500
N978        N  0.81259803  0.58910007  0.18708370    -0.35300
N979        N  0.81955223  0.60018374  0.17527743    -0.27500
C980        C  0.81433839  0.61679676  0.17890433    -0.02800
C981        C  0.80367786  0.61650128  0.19377631     0.05900
C982        C  0.80290516  0.59871733  0.19875680     0.04000
H983        H  0.81805227  0.62833033  0.17114886     0.09100
H984        H  0.79534331  0.59312398  0.20962708     0.07900
N985        N  0.85325404  0.12457834  0.41243017    -0.26500
N986        N  0.85143162  0.11825940  0.42867679    -0.34400
C987        C  0.86216664  0.10414656  0.43070198     0.01800
C988        C  0.87131840  0.10141425  0.41492535     0.07900
C989        C  0.86522605  0.11466634  0.40360728    -0.05200
H990        H  0.86368928  0.09684166  0.44299377     0.08500
H991        H  0.86912481  0.11698528  0.38997321     0.09700
Cu992      Cu  0.83565644  0.13074691  0.44743478     0.44200
Cu993      Cu  0.83901425  0.14654963  0.40388224     0.42000
Cu994      Cu  0.80993913  0.17020932  0.43565538     0.43900
N995        N  0.82486014  0.14816436  0.46578626    -0.33900
N996        N  0.81600547  0.16290157  0.46213140    -0.28100
C997        C  0.81429360  0.17236395  0.47738097    -0.04200
C998        C  0.82258653  0.16307921  0.49107412     0.08000
C999        C  0.82897926  0.14786868  0.48309263     0.01800
H1000       H  0.80896647  0.18568341  0.47810688     0.09400
H1001       H  0.83746090  0.13797102  0.48913533     0.08500
N1002       N  0.80962521  0.17408343  0.40777315    -0.35300
N1003       N  0.82098814  0.16617688  0.39692073    -0.27500
C1004       C  0.81825406  0.17188258  0.38023185    -0.02800
C1005       C  0.80432006  0.18375901  0.38022926     0.05900
C1006       C  0.79905881  0.18481270  0.39794195     0.04000
H1007       H  0.82563267  0.16732343  0.36878003     0.09100
H1008       H  0.78856919  0.19301315  0.40329888     0.07900
N1009       N  0.87499210  0.14658433  0.58554391    -0.26500
N1010       N  0.87874966  0.14714437  0.56844723    -0.34400
C1011       C  0.89144921  0.13519884  0.56480242     0.01800
C1012       C  0.89598705  0.12651950  0.58039799     0.07900
C1013       C  0.88525490  0.13417678  0.59333874    -0.05200
H1014       H  0.89639845  0.13247910  0.55158897     0.08500
H1015       H  0.88479866  0.13096184  0.60733294     0.09700
Cu1016     Cu  0.86429112  0.16216824  0.55075432     0.44200
Cu1017     Cu  0.85514861  0.16250743  0.59617226     0.42000
Cu1018     Cu  0.82366066  0.18366935  0.56414433     0.43900
N1019       N  0.84481449  0.16980538  0.53318595    -0.33900
N1020       N  0.82937654  0.17696043  0.53744182    -0.28100
C1021       C  0.81900984  0.17702109  0.52269279    -0.04200
C1022       C  0.82852285  0.16937436  0.50875756     0.08000
C1023       C  0.84472408  0.16508670  0.51605389     0.01800
H1024       H  0.80524308  0.18103979  0.52245692     0.09400
H1025       H  0.85535032  0.15785095  0.50966113     0.08500
N1026       N  0.82353111  0.18754188  0.59201626    -0.35300
N1027       N  0.83492184  0.17997246  0.60307515    -0.27500
C1028       C  0.83122404  0.18505842  0.61978091    -0.02800
C1029       C  0.81672588  0.19634985  0.61958263     0.05900
C1030       C  0.81224080  0.19763067  0.60164736     0.04000
H1031       H  0.83837434  0.18039208  0.63133039     0.09100
H1032       H  0.80159745  0.20534669  0.59592103     0.07900
N1033       N  0.14167838  0.85418128  0.41531515    -0.26500
N1034       N  0.13407395  0.85040817  0.43060706    -0.34400
C1035       C  0.12035004  0.86143781  0.43325991     0.01800
C1036       C  0.11902084  0.87277748  0.41875237     0.07900
C1037       C  0.13288822  0.86772990  0.40762589    -0.05200
H1038       H  0.11255708  0.86162142  0.44530858     0.08500
H1039       H  0.13647599  0.87357111  0.39499075     0.09700
Cu1040     Cu  0.14452347  0.83173580  0.44762595     0.44200
Cu1041     Cu  0.16399057  0.84023228  0.40729242     0.42000
Cu1042     Cu  0.18612492  0.80911079  0.43963511     0.43900
N1043       N  0.15874226  0.81867566  0.46694127    -0.33900
N1044       N  0.17450183  0.81121439  0.46512771    -0.28100
C1045       C  0.18027987  0.80634462  0.48152745    -0.04200
C1046       C  0.16732068  0.81094692  0.49395667     0.08000
C1047       C  0.15400436  0.81862957  0.48403478     0.01800
H1048       H  0.19294815  0.80017827  0.48422663     0.09400
H1049       H  0.14191270  0.82460409  0.48890862     0.08500
N1050       N  0.19110335  0.81024894  0.41195873    -0.35300
N1051       N  0.18351137  0.82183174  0.40107614    -0.27500
C1052       C  0.18883412  0.81866989  0.38436846    -0.02800
C1053       C  0.20030286  0.80437174  0.38435294     0.05900
C1054       C  0.20136868  0.79926709  0.40211800     0.04000
H1055       H  0.18377537  0.82568888  0.37289867     0.09100
H1056       H  0.20876073  0.78815979  0.40743518     0.07900
N1057       N  0.13706839  0.84977753  0.59089037    -0.26500
N1058       N  0.12906313  0.84381875  0.57653417    -0.34400
C1059       C  0.11420552  0.85325757  0.57373621     0.01800
C1060       C  0.11262073  0.86584394  0.58711407     0.07900
C1061       C  0.12746977  0.86320716  0.59775934    -0.05200
H1062       H  0.10581766  0.85170129  0.56220033     0.08500
H1063       H  0.13121141  0.87068591  0.60943315     0.09700
Cu1064     Cu  0.14081611  0.82509575  0.56033063     0.44200
Cu1065     Cu  0.16103061  0.83885999  0.59892271     0.42000
Cu1066     Cu  0.18582713  0.80931590  0.56774138     0.43900
N1067       N  0.15676949  0.81422635  0.54089168    -0.33900
N1068       N  0.17358604  0.80953608  0.54253932    -0.28100
C1069       C  0.18024038  0.80656745  0.52603072    -0.04200
C1070       C  0.16684298  0.80965122  0.51363962     0.08000
C1071       C  0.15227227  0.81427836  0.52372852     0.01800
H1072       H  0.19394174  0.80338789  0.52321138     0.09400
H1073       H  0.13947951  0.81862676  0.51893558     0.08500
N1074       N  0.19072361  0.81134563  0.59529348    -0.35300
N1075       N  0.18190751  0.82227376  0.60589216    -0.27500
C1076       C  0.18671747  0.81928617  0.62277938    -0.02800
C1077       C  0.19907695  0.80573042  0.62321365     0.05900
C1078       C  0.20143871  0.80109559  0.60545190     0.04000
H1079       H  0.18088222  0.82599911  0.63405717     0.09100
H1080       H  0.20942499  0.79029233  0.60039416     0.07900
N1081       N  0.85526120  0.40875342  0.86569150    -0.26500
N1082       N  0.85162365  0.42416856  0.87311172    -0.34400
C1083       C  0.86172750  0.42621197  0.88763501     0.01800
C1084       C  0.87215360  0.41116345  0.88958904     0.07900
C1085       C  0.86770514  0.40039367  0.87533711    -0.05200
H1086       H  0.86184465  0.43807490  0.89571380     0.08500
H1087       H  0.87305147  0.38744299  0.87218699     0.09700
Cu1088     Cu  0.83409992  0.44187420  0.86185339     0.44200
Cu1089     Cu  0.84255479  0.40057737  0.84294924     0.42000
Cu1090     Cu  0.81250502  0.43168244  0.81980430     0.43900
N1091       N  0.82262303  0.46066035  0.84562577    -0.33900
N1092       N  0.81550978  0.45773728  0.82983070    -0.28100
C1093       C  0.81327035  0.47364364  0.82165020    -0.04200
C1094       C  0.81941646  0.48696271  0.83291583     0.08000
C1095       C  0.82508260  0.47811003  0.84790746     0.01800
H1096       H  0.80917274  0.47524646  0.80797088     0.09400
H1097       H  0.83217756  0.48380345  0.85902536     0.08500
N1098       N  0.81349451  0.40397699  0.81519337    -0.35300
N1099       N  0.82474393  0.39335815  0.82353693    -0.27500
C1100       C  0.82159890  0.37645685  0.81894306    -0.02800
C1101       C  0.80760499  0.37604830  0.80717164     0.05900
C1102       C  0.80287570  0.39379582  0.80487536     0.04000
H1103       H  0.82877933  0.36520349  0.82423849     0.09100
H1104       H  0.79202355  0.39882166  0.79694250     0.07900
N1105       N  0.86638708  0.58447718  0.85610222    -0.26500
N1106       N  0.87139458  0.56772265  0.85522258    -0.34400
C1107       C  0.88523875  0.56515619  0.86616158     0.01800
C1108       C  0.88907706  0.58108844  0.87454278     0.07900
C1109       C  0.87683144  0.59308689  0.86777299    -0.05200
H1110       H  0.89147953  0.55242667  0.86849308     0.08500
H1111       H  0.87551177  0.60699240  0.87111498     0.09700
Cu1112     Cu  0.85719424  0.54911055  0.84092662     0.44200
Cu1113     Cu  0.84524064  0.59374815  0.84113578     0.42000
Cu1114     Cu  0.81662906  0.56096396  0.81755746     0.43900
N1115       N  0.83895805  0.53090170  0.83152610    -0.33900
N1116       N  0.82386845  0.53458268  0.82335860    -0.28100
C1117       C  0.81465252  0.51924017  0.82133484    -0.04200
C1118       C  0.82449114  0.50548387  0.82877560     0.08000
C1119       C  0.83970860  0.51348623  0.83502123     0.01800
H1120       H  0.80137647  0.51835548  0.81597544     0.09400
H1121       H  0.85024661  0.50722321  0.84249724     0.08500
N1122       N  0.81524217  0.58874033  0.81438262    -0.35300
N1123       N  0.82565295  0.60011408  0.82283599    -0.27500
C1124       C  0.82203964  0.61668029  0.81728114    -0.02800
C1125       C  0.80862900  0.61598807  0.80477570     0.05900
C1126       C  0.80460341  0.59800243  0.80330172     0.04000
H1127       H  0.82872358  0.62843887  0.82211860     0.09100
H1128       H  0.79497977  0.59201158  0.79450630     0.07900
N1129       N  0.87845418  0.84035746  0.40871859    -0.26500
N1130       N  0.88258174  0.83877083  0.42565400    -0.34400
C1131       C  0.89576515  0.85009765  0.42956847     0.01800
C1132       C  0.90041492  0.85904043  0.41419442     0.07900
C1133       C  0.88919699  0.85250477  0.40117185    -0.05200
H1134       H  0.90102075  0.85223309  0.44276777     0.08500
H1135       H  0.88804504  0.85717439  0.38762346     0.09700
Cu1136     Cu  0.86801619  0.82303534  0.44259137     0.44200
Cu1137     Cu  0.85625632  0.82776584  0.39869522     0.42000
Cu1138     Cu  0.82431711  0.80662368  0.43045312     0.43900
N1139       N  0.85009006  0.81276203  0.46042295    -0.33900
N1140       N  0.83363883  0.80781366  0.45688451    -0.28100
C1141       C  0.82488982  0.80591793  0.47252576    -0.04200
C1142       C  0.83655956  0.80988375  0.48630893     0.08000
C1143       C  0.85229552  0.81403678  0.47799056     0.01800
H1144       H  0.81079559  0.80351729  0.47370594     0.09400
H1145       H  0.86405630  0.81945476  0.48419672     0.08500
N1146       N  0.82154855  0.80706791  0.40250029    -0.35300
N1147       N  0.83310455  0.81477448  0.39170547    -0.27500
C1148       C  0.82803100  0.81235872  0.37482642    -0.02800
C1149       C  0.81254134  0.80249231  0.37453646     0.05900
C1150       C  0.80878111  0.79942661  0.39245460     0.04000
H1151       H  0.83536984  0.81742134  0.36356750     0.09100
H1152       H  0.79792773  0.79175091  0.39785905     0.07900
N1153       N  0.86478791  0.85387098  0.58381695    -0.26500
N1154       N  0.86413868  0.85847269  0.56692469    -0.34400
C1155       C  0.87516268  0.87216783  0.56405149     0.01800
C1156       C  0.88327718  0.87644990  0.57995537     0.07900
C1157       C  0.87640265  0.86453150  0.59225781    -0.05200
H1158       H  0.87721851  0.87843437  0.55126850     0.08500
H1159       H  0.87925391  0.86393906  0.60632906     0.09700
Cu1160     Cu  0.84875996  0.84518666  0.54873239     0.44200
Cu1161     Cu  0.84882533  0.83356019  0.59346185     0.42000
Cu1162     Cu  0.82352906  0.80609357  0.56058149     0.43900
N1163       N  0.83730581  0.82843971  0.53048407    -0.33900
N1164       N  0.82850191  0.81368235  0.53412118    -0.28100
C1165       C  0.82538980  0.80502773  0.51864371    -0.04200
C1166       C  0.83269828  0.81495605  0.50484603     0.08000
C1167       C  0.84007480  0.82959205  0.51297688     0.01800
H1168       H  0.81949839  0.79196100  0.51765524     0.09400
H1169       H  0.84803923  0.83980819  0.50672498     0.08500
N1170       N  0.82119255  0.80418072  0.58840870    -0.35300
N1171       N  0.83022690  0.81414807  0.59974354    -0.27500
C1172       C  0.82488414  0.81045732  0.61635290    -0.02800
C1173       C  0.81184506  0.79753693  0.61574401     0.05900
C1174       C  0.80991279  0.79378395  0.59775262     0.04000
H1175       H  0.83006080  0.81694664  0.62807291     0.09100
H1176       H  0.80052311  0.78470130  0.59180989     0.07900
N1177       N  0.41486327  0.86475426  0.85023672    -0.26500
N1178       N  0.43187466  0.86866078  0.84988848    -0.34400
C1179       C  0.43528674  0.88110780  0.86219788     0.01800
C1180       C  0.41954940  0.88523835  0.87077996     0.07900
C1181       C  0.40684772  0.87456831  0.86280547    -0.05200
H1182       H  0.44844014  0.88575237  0.86554412     0.08500
H1183       H  0.39300127  0.87342067  0.86639607     0.09700
Cu1184     Cu  0.44931847  0.85394583  0.83481806     0.44200
Cu1185     Cu  0.40506228  0.84441242  0.83484143     0.42000
Cu1186     Cu  0.43591985  0.81307820  0.81189774     0.43900
N1187       N  0.46669349  0.83535326  0.82481317    -0.33900
N1188       N  0.46262709  0.82006779  0.81714464    -0.28100
C1189       C  0.47775279  0.81041077  0.81557251    -0.04200
C1190       C  0.49173033  0.82022444  0.82269615     0.08000
C1191       C  0.48406508  0.83585201  0.82828535     0.01800
H1192       H  0.47828593  0.79679106  0.81102693     0.09400
H1193       H  0.49043358  0.84634090  0.83575852     0.08500
N1194       N  0.40786130  0.81214985  0.81042948    -0.35300
N1195       N  0.39747312  0.82358804  0.81881104    -0.27500
C1196       C  0.38046300  0.81980448  0.81543981    -0.02800
C1197       C  0.37966095  0.80534901  0.80421000     0.05900
C1198       C  0.39735337  0.80068315  0.80141697     0.04000
H1199       H  0.36948083  0.82698525  0.82121943     0.09100
H1200       H  0.40221000  0.78985895  0.79332533     0.07900
N1201       N  0.58692359  0.84375107  0.87063517    -0.26500
N1202       N  0.57018846  0.84270440  0.87556761    -0.34400
C1203       C  0.56728196  0.85432616  0.88881726     0.01800
C1204       C  0.58302554  0.86322375  0.89237665     0.07900
C1205       C  0.59521749  0.85600818  0.88059528    -0.05200
H1206       H  0.55445960  0.85670379  0.89481000     0.08500
H1207       H  0.60905290  0.85945596  0.87913358     0.09700
Cu1208     Cu  0.55226407  0.82702348  0.86191038     0.44200
Cu1209     Cu  0.59672571  0.82910243  0.84962895     0.42000
Cu1210     Cu  0.56544293  0.80525877  0.82036180     0.43900
N1211       N  0.53473363  0.81678366  0.84344329    -0.33900
N1212       N  0.53882915  0.80964189  0.82790869    -0.28100
C1213       C  0.52371191  0.80803360  0.81827235    -0.04200
C1214       C  0.50963844  0.81452595  0.82834717     0.08000
C1215       C  0.51727382  0.81983396  0.84412176     0.01800
H1216       H  0.52324036  0.80399204  0.80449124     0.09400
H1217       H  0.51081158  0.82696887  0.85478979     0.08500
N1218       N  0.59333884  0.80425641  0.81803521    -0.35300
N1219       N  0.60421959  0.81295745  0.82873841    -0.27500
C1220       C  0.62107205  0.80945435  0.82418297    -0.02800
C1221       C  0.62110646  0.79800017  0.80983811     0.05900
C1222       C  0.60322382  0.79498628  0.80627985     0.04000
H1223       H  0.63250440  0.81499184  0.83086050     0.09100
H1224       H  0.59776841  0.78640227  0.79615103     0.07900
C1225       C  0.24052369  0.72897399  0.76243750     0.03100
C1226       C  0.23296383  0.73714336  0.74722303     0.03100
C1227       C  0.24124902  0.75220153  0.73948916     0.03100
C1228       C  0.25651860  0.75965277  0.74759259     0.03100
C1229       C  0.26399213  0.75150190  0.76283970     0.03100
C1230       C  0.25576939  0.73642329  0.77052481     0.03100
C1231       C  0.73284128  0.75127802  0.75146146     0.03100
C1232       C  0.74116790  0.75892788  0.73637281     0.03100
C1233       C  0.75638346  0.75068791  0.72893067     0.03100
C1234       C  0.76387118  0.73547784  0.73718492     0.03100
C1235       C  0.75553294  0.72782314  0.75223985     0.03100
C1236       C  0.74018013  0.73588083  0.75954491     0.03100
C1237       C  0.75720315  0.73336801  0.23873007     0.03100
C1238       C  0.74240320  0.74087154  0.23000879     0.03100
C1239       C  0.73417219  0.75621514  0.23704278     0.03100
C1240       C  0.74147801  0.76472139  0.25217682     0.03100
C1241       C  0.75670747  0.75750345  0.26054635     0.03100
C1242       C  0.76477601  0.74202676  0.25354897     0.03100
C1243       C  0.74245526  0.23134860  0.74017572     0.03100
C1244       C  0.73390904  0.23905424  0.75506084     0.03100
C1245       C  0.74179781  0.25377849  0.76373331     0.03100
C1246       C  0.75728958  0.26181760  0.75661040     0.03100
C1247       C  0.76547343  0.25445917  0.74130740     0.03100
C1248       C  0.75795852  0.23928029  0.73303418     0.03100
N1249       N  0.12620721  0.40474472  0.85243429    -0.26500
N1250       N  0.12088178  0.42138402  0.85177277    -0.34400
C1251       C  0.10656226  0.42330475  0.86225514     0.01800
C1252       C  0.10271614  0.40698823  0.87000927     0.07900
C1253       C  0.11548518  0.39550277  0.86334020    -0.05200
H1254       H  0.09994522  0.43582023  0.86466839     0.08500
H1255       H  0.11704416  0.38152365  0.86625075     0.09700
Cu1256     Cu  0.13530249  0.44017823  0.83778225     0.44200
Cu1257     Cu  0.14842426  0.39672567  0.83864721     0.42000
Cu1258     Cu  0.17647962  0.42882343  0.81358291     0.43900
N1259       N  0.15308579  0.45835850  0.82729845    -0.33900
N1260       N  0.16808421  0.45496355  0.81879223    -0.28100
C1261       C  0.17676312  0.47053482  0.81616806    -0.04200
C1262       C  0.16669301  0.48413244  0.82355456     0.08000
C1263       C  0.15189274  0.47580971  0.83037486     0.01800
H1264       H  0.18991504  0.47169657  0.81053427     0.09400
H1265       H  0.14137778  0.48189985  0.83802467     0.08500
N1266       N  0.17949249  0.40103537  0.81299599    -0.35300
N1267       N  0.16944042  0.39011527  0.82242337    -0.27500
C1268       C  0.17415973  0.37331448  0.81912603    -0.02800
C1269       C  0.18781419  0.37324037  0.80687451     0.05900
C1270       C  0.19094076  0.39116484  0.80332257     0.04000
H1271       H  0.16783065  0.36196218  0.82524547     0.09100
H1272       H  0.20042193  0.39667746  0.79405553     0.07900
N1273       N  0.14055517  0.58250581  0.86433244    -0.26500
N1274       N  0.14314019  0.56628577  0.87039858    -0.34400
C1275       C  0.13309546  0.56369503  0.88489661     0.01800
C1276       C  0.12369856  0.57914178  0.88828920     0.07900
C1277       C  0.12874720  0.59080580  0.87488070    -0.05200
H1278       H  0.13207189  0.55115601  0.89184130     0.08500
H1279       H  0.12400027  0.60420167  0.87277321     0.09700
Cu1280     Cu  0.15857890  0.54805784  0.85712148     0.44200
Cu1281     Cu  0.15323774  0.59113324  0.84145997     0.42000
Cu1282     Cu  0.18005080  0.55802951  0.81552494     0.43900
N1283       N  0.16864956  0.52899293  0.84033683    -0.33900
N1284       N  0.17601469  0.53189374  0.82465471    -0.28100
C1285       C  0.17800314  0.51603266  0.81634804    -0.04200
C1286       C  0.17140354  0.50277373  0.82746394     0.08000
C1287       C  0.16572019  0.51160501  0.84244580     0.01800
H1288       H  0.18247875  0.51443956  0.80278228     0.09400
H1289       H  0.15864563  0.50593730  0.85361150     0.08500
N1290       N  0.18016255  0.58575098  0.81157974    -0.35300
N1291       N  0.16984139  0.59705240  0.82028021    -0.27500
C1292       C  0.17313506  0.61364039  0.81458282    -0.02800
C1293       C  0.18631560  0.61298541  0.80191348     0.05900
C1294       C  0.19058395  0.59512411  0.80036182     0.04000
H1295       H  0.16702697  0.62545985  0.81999741     0.09100
H1296       H  0.20066095  0.58940484  0.79188675     0.07900
C1297       C  0.25802336  0.22932367  0.74492418     0.03100
C1298       C  0.24268836  0.23682458  0.73705805     0.03100
C1299       C  0.23425964  0.25162368  0.74498484     0.03100
C1300       C  0.24192144  0.25961273  0.76017597     0.03100
C1301       C  0.25751112  0.25240171  0.76788520     0.03100
C1302       C  0.26566656  0.23730636  0.76014231     0.03100
C1303       C  0.23249118  0.73402159  0.26113096     0.03100
C1304       C  0.24073324  0.74894261  0.26892276     0.03100
C1305       C  0.25610413  0.75629846  0.26104835     0.03100
C1306       C  0.26404162  0.74808367  0.24618953     0.03100
C1307       C  0.25592011  0.73302886  0.23844375     0.03100
C1308       C  0.24040032  0.72571682  0.24621649     0.03100
C1309       C  0.74301579  0.22700798  0.25656540     0.03100
C1310       C  0.73522308  0.23481561  0.24133537     0.03100
C1311       C  0.74334690  0.24961583  0.23310420     0.03100
C1312       C  0.75863122  0.25739760  0.24071989     0.03100
C1313       C  0.76668483  0.24942189  0.25580574     0.03100
C1314       C  0.75854523  0.23452268  0.26410916     0.03100
N1315       N  0.13375884  0.14018301  0.41707885    -0.26500
N1316       N  0.12690248  0.14448349  0.43259377    -0.34400
C1317       C  0.11255325  0.13432894  0.43566430     0.01800
C1318       C  0.11019585  0.12311524  0.42123336     0.07900
C1319       C  0.12397890  0.12720842  0.40972520    -0.05200
H1320       H  0.10483674  0.13471570  0.44777175     0.08500
H1321       H  0.12667996  0.12127874  0.39691841     0.09700
Cu1322     Cu  0.13890959  0.16301414  0.44887663     0.44200
Cu1323     Cu  0.15586520  0.15297459  0.40730953     0.42000
Cu1324     Cu  0.18144109  0.18289213  0.43655158     0.43900
N1325       N  0.15586573  0.17544160  0.46646539    -0.33900
N1326       N  0.17196024  0.18145153  0.46284790    -0.28100
C1327       C  0.18061898  0.18402281  0.47841397    -0.04200
C1328       C  0.16930361  0.17941233  0.49229697     0.08000
C1329       C  0.15380455  0.17423117  0.48407106     0.01800
H1330       H  0.19458002  0.18714607  0.47947389     0.09400
H1331       H  0.14253923  0.16790923  0.49037132     0.08500
N1332       N  0.18392282  0.18196402  0.40867064    -0.35300
N1333       N  0.17458842  0.17096430  0.39864313    -0.27500
C1334       C  0.17798529  0.17420223  0.38146505    -0.02800
C1335       C  0.19000788  0.18798451  0.38028657     0.05900
C1336       C  0.19367737  0.19248560  0.39784916     0.04000
H1337       H  0.17195762  0.16698373  0.37062241     0.09100
H1338       H  0.20233215  0.20300802  0.40238735     0.07900
N1339       N  0.14809646  0.12795855  0.58840581    -0.26500
N1340       N  0.14736977  0.12557692  0.57110150    -0.34400
C1341       C  0.13590049  0.11253519  0.56739192     0.01800
C1342       C  0.12913065  0.10606835  0.58322743     0.07900
C1343       C  0.13709004  0.11630149  0.59635594    -0.05200
H1344       H  0.13234581  0.10861626  0.55405081     0.08500
H1345       H  0.13496812  0.11545339  0.61054755     0.09700
Cu1346     Cu  0.16115093  0.14111255  0.55353687     0.44200
Cu1347     Cu  0.16380312  0.14792567  0.59865302     0.42000
Cu1348     Cu  0.18524716  0.18010680  0.56637689     0.43900
N1349       N  0.17102624  0.15914084  0.53572121    -0.33900
N1350       N  0.17946052  0.17400887  0.53966971    -0.28100
C1351       C  0.18150577  0.18351765  0.52447595    -0.04200
C1352       C  0.17383287  0.17398741  0.51059565     0.08000
C1353       C  0.16743701  0.15870878  0.51836006     0.01800
H1354       H  0.18698549  0.19678574  0.52379621     0.09400
H1355       H  0.15966693  0.14841966  0.51202145     0.08500
N1356       N  0.18791483  0.18042089  0.59429035    -0.35300
N1357       N  0.18034014  0.16882586  0.60519363    -0.27500
C1358       C  0.18521187  0.17235520  0.62193534    -0.02800
C1359       C  0.19640193  0.18686083  0.62190308     0.05900
C1360       C  0.19778101  0.19172811  0.60412014     0.04000
H1361       H  0.18081821  0.16480659  0.63336308     0.09100
H1362       H  0.20573879  0.20236815  0.59865141     0.07900
C1363       C  0.26297496  0.23331708  0.24129230     0.03100
C1364       C  0.25458017  0.22554068  0.25625597     0.03100
C1365       C  0.23944847  0.23373102  0.26382525     0.03100
C1366       C  0.23205277  0.24910723  0.25583576     0.03100
C1367       C  0.24053118  0.25696562  0.24096245     0.03100
C1368       C  0.25569266  0.24878481  0.23340402     0.03100
C1369       C  0.22799016  0.23082412  0.31280596    -0.27400
C1370       C  0.21878917  0.21461739  0.31380313     0.06200
C1371       C  0.21640813  0.20464836  0.29810489     0.25800
C1372       C  0.22300178  0.21090345  0.28185324    -0.11900
C1373       C  0.23216031  0.22709082  0.28097993    -0.25800
C1374       C  0.23471269  0.23695245  0.29660473     0.36600
C1375       C  0.21140173  0.20841570  0.33110590     0.06200
F1376       F  0.20803018  0.18868862  0.29851886    -0.19600
H1377       H  0.22104029  0.20309720  0.26993465     0.16000
F1378       F  0.24387851  0.25246910  0.29618323    -0.23300
H1379       H  0.22982328  0.23887571  0.32457497     0.17800
C1380       C  0.22160719  0.20867372  0.34680328     0.25800
C1381       C  0.21441516  0.20258663  0.36289530    -0.11900
C1382       C  0.19703372  0.19593323  0.36362186    -0.25900
C1383       C  0.18669135  0.19617834  0.34801873     0.36700
C1384       C  0.19382046  0.20237452  0.33202870    -0.27500
F1385       F  0.23874360  0.21417579  0.34648600    -0.19700
H1386       H  0.22265966  0.20251056  0.37466820     0.16000
F1387       F  0.16952352  0.19077534  0.34819754    -0.23400
H1388       H  0.18548545  0.20257109  0.32031693     0.17900
C1389       C  0.21494814  0.21316032  0.70233451    -0.27400
C1390       C  0.22482539  0.21640959  0.68680522     0.06200
C1391       C  0.24043712  0.22654091  0.68790916     0.25800
C1392       C  0.24611279  0.23309483  0.70432081    -0.11900
C1393       C  0.23624039  0.22981030  0.71980070    -0.25800
C1394       C  0.22057782  0.21981925  0.71872309     0.36600
C1395       C  0.21886513  0.20885390  0.66965135     0.06200
F1396       F  0.25042154  0.22968070  0.67322511    -0.19600
H1397       H  0.25825380  0.24075838  0.70500960     0.16000
F1398       F  0.21090850  0.21632603  0.73353428    -0.23300
H1399       H  0.20283154  0.20545390  0.70172958     0.17800
C1400       C  0.21555691  0.19057132  0.66816676     0.25800
C1401       C  0.20871668  0.18358117  0.65244136    -0.11900
C1402       C  0.20509007  0.19461448  0.63779395    -0.25900
C1403       C  0.20904025  0.21285536  0.63902939     0.36700
C1404       C  0.21586846  0.21988237  0.65487106    -0.27500
F1405       F  0.21902027  0.17944003  0.68194138    -0.19700
H1406       H  0.20621076  0.16943587  0.65177371     0.16000
F1407       F  0.20551093  0.22403130  0.62532904    -0.23400
H1408       H  0.21830264  0.23403430  0.65579683     0.17900
C1409       C  0.22081649  0.34156580  0.78504441    -0.27400
C1410       C  0.21182773  0.32523857  0.78654247     0.06200
C1411       C  0.19483194  0.32503777  0.79417590     0.25800
C1412       C  0.18721278  0.34069498  0.80042393    -0.11900
C1413       C  0.19620771  0.35705268  0.79921055    -0.25800
C1414       C  0.21306880  0.35735948  0.79114481     0.36600
C1415       C  0.21999058  0.30850372  0.77998106     0.06200
F1416       F  0.18530788  0.30975770  0.79522173    -0.19600
H1417       H  0.17403288  0.33989677  0.80602425     0.16000
F1418       F  0.22231582  0.37272703  0.78949511    -0.23300
H1419       H  0.23400240  0.34208091  0.77936356     0.17800
C1420       C  0.22815017  0.30778492  0.76317059     0.25800
C1421       C  0.23525357  0.29184904  0.75693757    -0.11900
C1422       C  0.23421378  0.27632566  0.76720098    -0.25900
C1423       C  0.22599405  0.27689365  0.78390692     0.36700
C1424       C  0.21916201  0.29291010  0.79032262    -0.27500
F1425       F  0.22880291  0.32232421  0.75251332    -0.19700
H1426       H  0.24155484  0.29156085  0.74400301     0.16000
F1427       F  0.22441172  0.26193678  0.79387466    -0.23400
H1428       H  0.21316516  0.29311012  0.80339569     0.17900
C1429       C  0.23437219  0.67941163  0.76867917    -0.27400
C1430       C  0.21826919  0.67858118  0.77805302     0.06200
C1431       C  0.21007359  0.69460651  0.78326472     0.25800
C1432       C  0.21753198  0.71100439  0.77856936    -0.11900
C1433       C  0.23337500  0.71170927  0.76886123    -0.25800
C1434       C  0.24187329  0.69580043  0.76413582     0.36600
C1435       C  0.21030815  0.66102441  0.78258754     0.06200
F1436       F  0.19502810  0.69443477  0.79316735    -0.19600
H1437       H  0.21088855  0.72317870  0.78235963     0.16000
F1438       F  0.25710793  0.69615471  0.75453389    -0.23300
H1439       H  0.24097005  0.66732952  0.76453458     0.17800
C1440       C  0.19215222  0.65764871  0.77977129     0.25800
C1441       C  0.18454504  0.64171859  0.78561945    -0.11900
C1442       C  0.19497219  0.62858168  0.79371966    -0.25900
C1443       C  0.21328520  0.63140934  0.79553270     0.36700
C1444       C  0.22084486  0.64754490  0.79010723    -0.27500
F1445       F  0.18176923  0.66970268  0.77130214    -0.19700
H1446       H  0.17042415  0.63966553  0.78395426     0.16000
F1447       F  0.22364728  0.61905870  0.80357692    -0.23400
H1448       H  0.23485645  0.64974881  0.79235005     0.17900
C1449       C  0.65223305  0.77953889  0.77440358    -0.27400
C1450       C  0.66818124  0.77778089  0.78390441     0.06200
C1451       C  0.66839871  0.78238881  0.80201308     0.25800
C1452       C  0.65304021  0.78875144  0.81030228    -0.11900
C1453       C  0.63707607  0.79063549  0.80079913    -0.25800
C1454       C  0.63684206  0.78591716  0.78270314     0.36600
C1455       C  0.68455774  0.77137228  0.77486687     0.06200
F1456       F  0.68338656  0.78042311  0.81180431    -0.19600
H1457       H  0.65364239  0.79205921  0.82428461     0.16000
F1458       F  0.62198894  0.78814139  0.77280284    -0.23300
H1459       H  0.65179472  0.77632487  0.76038848     0.17800
C1460       C  0.68450599  0.75554462  0.76491374     0.25800
C1461       C  0.70012786  0.74941053  0.75693289    -0.11900
C1462       C  0.71605492  0.75892341  0.75866280    -0.25900
C1463       C  0.71608701  0.77487255  0.76833207     0.36700
C1464       C  0.70047724  0.78101593  0.77633489    -0.27500
F1465       F  0.66951988  0.74565755  0.76347386    -0.19700
H1466       H  0.69992201  0.73699170  0.74967773     0.16000
F1467       F  0.73134592  0.78415401  0.77056553    -0.23400
H1468       H  0.70083421  0.79330777  0.78378924     0.17900
C1469       C  0.33147479  0.79837396  0.79101648    -0.27400
C1470       C  0.33101120  0.78015283  0.78727591     0.06200
C1471       C  0.34688834  0.77034870  0.78817254     0.25800
C1472       C  0.36278706  0.77862547  0.79326134    -0.11900
C1473       C  0.36315005  0.79681574  0.79747196    -0.25800
C1474       C  0.34729862  0.80667741  0.79590843     0.36600
C1475       C  0.31401148  0.77179232  0.78180548     0.06200
F1476       F  0.34692229  0.75267868  0.78460814    -0.19600
H1477       H  0.37471485  0.77070122  0.79432196     0.16000
F1478       F  0.34704941  0.82448980  0.79862187    -0.23300
H1479       H  0.31954112  0.80629777  0.78985593     0.17800
C1480       C  0.29849760  0.77389137  0.79205892     0.25800
C1481       C  0.28229428  0.76702596  0.78607785    -0.11900
C1482       C  0.28130931  0.75802014  0.76980098    -0.25900
C1483       C  0.29683184  0.75562561  0.75974659     0.36700
C1484       C  0.31300868  0.76245000  0.76570946    -0.27500
F1485       F  0.29903670  0.78254200  0.80786564    -0.19700
H1486       H  0.27044867  0.76897164  0.79398062     0.16000
F1487       F  0.29626086  0.74679962  0.74404335    -0.23400
H1488       H  0.32470713  0.76082261  0.75751950     0.17900
C1489       C  0.78675274  0.76649957  0.64714438    -0.27400
C1490       C  0.78531777  0.77715141  0.66244118     0.06200
C1491       C  0.79153379  0.79473646  0.66171593     0.25800
C1492       C  0.79972071  0.80122367  0.64638204    -0.11900
C1493       C  0.80180111  0.79046543  0.63126386    -0.25800
C1494       C  0.79484354  0.77308417  0.63163914     0.36600
C1495       C  0.77795355  0.76991280  0.67933634     0.06200
F1496       F  0.78958489  0.80574781  0.67585531    -0.19600
H1497       H  0.80444565  0.81480488  0.64638724     0.16000
F1498       F  0.79653640  0.76218749  0.61739045    -0.23300
H1499       H  0.78208256  0.75289187  0.64737576     0.17800
C1500       C  0.76142396  0.76124004  0.67984165     0.25800
C1501       C  0.75451170  0.75513338  0.69602225    -0.11900
C1502       C  0.76393602  0.75750688  0.71193293    -0.25900
C1503       C  0.78047012  0.76606306  0.71145622     0.36700
C1504       C  0.78741148  0.77211846  0.69530287    -0.27500
F1505       F  0.75173366  0.75912124  0.66480575    -0.19700
H1506       H  0.74174372  0.74853767  0.69618340     0.16000
F1507       F  0.78980096  0.76872249  0.72663062    -0.23400
H1508       H  0.80024240  0.77858619  0.69525501     0.17900
C1509       C  0.77939794  0.78807932  0.29376143    -0.27400
C1510       C  0.77765103  0.77837525  0.30970273     0.06200
C1511       C  0.76835927  0.76213834  0.30932484     0.25800
C1512       C  0.76134055  0.75571269  0.29336951    -0.11900
C1513       C  0.76351663  0.76520301  0.27745898    -0.25800
C1514       C  0.77254586  0.78150526  0.27775916     0.36600
C1515       C  0.78627187  0.78477443  0.32638162     0.06200
F1516       F  0.76669700  0.75207317  0.32420357    -0.19600
H1517       H  0.75443580  0.74308979  0.29333061     0.16000
F1518       F  0.77514398  0.79080134  0.26251707    -0.23300
H1519       H  0.78626005  0.80071643  0.29365414     0.17800
C1520       C  0.80390311  0.79083127  0.32614829     0.25800
C1521       C  0.81214803  0.79639509  0.34179094    -0.11900
C1522       C  0.80316193  0.79615296  0.35821174    -0.25900
C1523       C  0.78548514  0.79002990  0.35849234     0.36700
C1524       C  0.77717794  0.78447703  0.34273295    -0.27500
F1525       F  0.81347147  0.79085621  0.31086242    -0.19700
H1526       H  0.82582291  0.80060574  0.34092120     0.16000
F1527       F  0.77603383  0.78968157  0.37382189    -0.23400
H1528       H  0.76351183  0.78009645  0.34329825     0.17900
C1529       C  0.77539990  0.64687402  0.78228586    -0.27400
C1530       C  0.78557815  0.66236666  0.77999731     0.06200
C1531       C  0.80356495  0.66206152  0.78486644     0.25800
C1532       C  0.81098469  0.64681210  0.79246770    -0.11900
C1533       C  0.80071197  0.63145673  0.79531715    -0.25800
C1534       C  0.78285258  0.63154294  0.78985012     0.36600
C1535       C  0.77735430  0.67896860  0.77308331     0.06200
F1536       F  0.81401344  0.67651030  0.78216572    -0.19600
H1537       H  0.82484874  0.64706567  0.79618076     0.16000
F1538       F  0.77232816  0.61718137  0.79260996    -0.23300
H1539       H  0.76149349  0.64682728  0.77870609     0.17800
C1540       C  0.76812029  0.67914647  0.75684988     0.25800
C1541       C  0.76100636  0.69503489  0.75027041    -0.11900
C1542       C  0.76267989  0.71094726  0.75986709    -0.25900
C1543       C  0.77156619  0.71072465  0.77626437     0.36700
C1544       C  0.77889630  0.69489311  0.78273602    -0.27500
F1545       F  0.76643002  0.66407806  0.74710916    -0.19700
H1546       H  0.75421001  0.69498339  0.73759701     0.16000
F1547       F  0.77347009  0.72588190  0.78581864    -0.23400
H1548       H  0.78578785  0.69504230  0.79535518     0.17900
C1549       C  0.79087067  0.32860178  0.80343602    -0.27400
C1550       C  0.78543812  0.32770663  0.78562673     0.06200
C1551       C  0.78660477  0.34319283  0.77509221     0.25800
C1552       C  0.79327077  0.35907711  0.78226114    -0.11900
C1553       C  0.79914123  0.35975398  0.79994221    -0.25800
C1554       C  0.79767598  0.34435934  0.81052569     0.36600
C1555       C  0.77833765  0.31068883  0.77832727     0.06200
F1556       F  0.78189956  0.34281631  0.75769610    -0.19600
H1557       H  0.79438356  0.37069382  0.77382814     0.16000
F1558       F  0.80246622  0.34459556  0.82790491    -0.23300
H1559       H  0.78969749  0.31706697  0.81197141     0.17800
C1560       C  0.78734457  0.29445258  0.78090085     0.25800
C1561       C  0.78040989  0.27856584  0.77404730    -0.11900
C1562       C  0.76436469  0.27854049  0.76461426    -0.25900
C1563       C  0.75530911  0.29467433  0.76217574     0.36700
C1564       C  0.76222891  0.31054058  0.76895994    -0.27500
F1565       F  0.80306914  0.29400131  0.78965400    -0.19700
H1566       H  0.78761808  0.26627255  0.77596314     0.16000
F1567       F  0.73993133  0.29512730  0.75284425    -0.23400
H1568       H  0.75489965  0.32274887  0.76698802     0.17900
C1569       C  0.22231148  0.78369218  0.70476412    -0.27400
C1570       C  0.22418665  0.77376594  0.68902239     0.06200
C1571       C  0.23141037  0.75655116  0.69011662     0.25800
C1572       C  0.23647544  0.74950341  0.70660447    -0.11900
C1573       C  0.23458904  0.75949091  0.72226404    -0.25800
C1574       C  0.22729092  0.77661046  0.72121481     0.36600
C1575       C  0.21784366  0.78127641  0.67179484     0.06200
F1576       F  0.23323115  0.74639700  0.67533846    -0.19600
H1577       H  0.24214040  0.73629392  0.70716203     0.16000
F1578       F  0.22500745  0.78648233  0.73611527    -0.23300
H1579       H  0.21697180  0.79703598  0.70432019     0.17800
C1580       C  0.20100179  0.78918637  0.67076189     0.25800
C1581       C  0.19514945  0.79687504  0.65494313    -0.11900
C1582       C  0.20577377  0.79680145  0.63958041    -0.25900
C1583       C  0.22248762  0.78848120  0.64037679     0.36700
C1584       C  0.22846739  0.78086831  0.65638291    -0.27500
F1585       F  0.18995744  0.78918811  0.68501239    -0.19700
H1586       H  0.18204517  0.80271781  0.65472917     0.16000
F1587       F  0.23327984  0.78822468  0.62594482    -0.23400
H1588       H  0.24155462  0.77497373  0.65682974     0.17900
C1589       C  0.23819983  0.75915206  0.31820524    -0.27400
C1590       C  0.22333848  0.77033719  0.31914739     0.06200
C1591       C  0.21387031  0.77411435  0.30344127     0.25800
C1592       C  0.21932033  0.76694907  0.28715628    -0.11900
C1593       C  0.23431623  0.75599503  0.28625401    -0.25800
C1594       C  0.24370993  0.75212000  0.30190181     0.36600
C1595       C  0.21834681  0.77882489  0.33627862     0.06200
F1596       F  0.19933018  0.78472327  0.30387047    -0.19600
H1597       H  0.21201882  0.77016615  0.27519785     0.16000
F1598       F  0.25840743  0.74173864  0.30130815    -0.23300
H1599       H  0.24583128  0.75625935  0.33004312     0.17800
C1600       C  0.21538684  0.76874970  0.35179076     0.25800
C1601       C  0.21019004  0.77712593  0.36764161    -0.11900
C1602       C  0.20781278  0.79564824  0.36827174    -0.25900
C1603       C  0.21149229  0.80570129  0.35288392     0.36700
C1604       C  0.21664418  0.79735030  0.33713418    -0.27500
F1605       F  0.21681633  0.75077805  0.35143222    -0.19700
H1606       H  0.20739491  0.76905583  0.37922864     0.16000
F1607       F  0.21029168  0.82368573  0.35303541    -0.23400
H1608       H  0.21934729  0.80541671  0.32551064     0.17900
C1609       C  0.78143872  0.21510394  0.65092757    -0.27400
C1610       C  0.79076386  0.21613378  0.66708094     0.06200
C1611       C  0.80888172  0.21166316  0.66713891     0.25800
C1612       C  0.81721038  0.20574999  0.65159644    -0.11900
C1613       C  0.80780271  0.20419986  0.63551038    -0.25800
C1614       C  0.78982066  0.20932316  0.63530035     0.36600
C1615       C  0.78161129  0.22162929  0.68382674     0.06200
F1616       F  0.81865330  0.21319834  0.68220474    -0.19600
H1617       H  0.83113794  0.20236219  0.65222935     0.16000
F1618       F  0.78003723  0.20807206  0.62024950    -0.23300
H1619       H  0.76745533  0.21832176  0.65047719     0.17800
C1620       C  0.77052122  0.23668900  0.68430648     0.25800
C1621       C  0.76267842  0.24208338  0.70028746    -0.11900
C1622       C  0.76562707  0.23259447  0.71606125    -0.25900
C1623       C  0.77631255  0.21734577  0.71561386     0.36700
C1624       C  0.78416615  0.21190945  0.69963662    -0.27500
F1625       F  0.76774304  0.24658698  0.66948977    -0.19700
H1626       H  0.75447617  0.25389163  0.70044974     0.16000
F1627       F  0.77947507  0.20797346  0.73069199    -0.23400
H1628       H  0.79232739  0.20007982  0.69963192     0.17900
C1629       C  0.77263179  0.20071504  0.34460278    -0.27400
C1630       C  0.78452140  0.20743450  0.33179552     0.06200
C1631       C  0.80275821  0.20745359  0.33577606     0.25800
C1632       C  0.80894582  0.20011016  0.35171811    -0.11900
C1633       C  0.79713702  0.19296740  0.36429082    -0.25800
C1634       C  0.77884324  0.19356614  0.36071426     0.36600
C1635       C  0.77790179  0.21423555  0.31433217     0.06200
F1636       F  0.81462320  0.21476008  0.32433118    -0.19600
H1637       H  0.82308091  0.19997202  0.35425751     0.16000
F1638       F  0.76706629  0.18635909  0.37230735    -0.23300
H1639       H  0.75853062  0.20054149  0.34189809     0.17800
C1640       C  0.78534673  0.20839696  0.29813788     0.25800
C1641       C  0.77919963  0.21511072  0.28184953    -0.11900
C1642       C  0.76539143  0.22756328  0.28137146    -0.25900
C1643       C  0.75767908  0.23311296  0.29745030     0.36700
C1644       C  0.76391671  0.22655923  0.31373518    -0.27500
F1645       F  0.79821052  0.19579784  0.29803108    -0.19700
H1646       H  0.78506794  0.21044944  0.26957265     0.16000
F1647       F  0.74416926  0.24501829  0.29736684    -0.23400
H1648       H  0.75791045  0.23124513  0.32593736     0.17900
C1649       C  0.78436189  0.69752809  0.21614292    -0.27400
C1650       C  0.77568164  0.68202493  0.22195751     0.06200
C1651       C  0.76121239  0.68352361  0.23361847     0.25800
C1652       C  0.75540722  0.70029360  0.23910742    -0.11900
C1653       C  0.76395080  0.71574500  0.23308191    -0.25800
C1654       C  0.77856699  0.71428566  0.22167333     0.36600
C1655       C  0.78137135  0.66448650  0.21510795     0.06200
F1656       F  0.75232566  0.66883714  0.23914938    -0.19600
H1657       H  0.74409202  0.70129003  0.24792435     0.16000
F1658       F  0.78702894  0.72905807  0.21573420    -0.23300
H1659       H  0.79557917  0.69661439  0.20719450     0.17800
C1660       C  0.78166471  0.66139574  0.19673138     0.25800
C1661       C  0.78831111  0.64545342  0.19005436    -0.11900
C1662       C  0.79471637  0.63219317  0.20152760    -0.25900
C1663       C  0.79373862  0.63492362  0.21999249     0.36700
C1664       C  0.78709600  0.65100280  0.22671326    -0.27500
F1665       F  0.77558464  0.67388309  0.18522086    -0.19700
H1666       H  0.78867270  0.64355779  0.17579424     0.16000
F1667       F  0.80015657  0.62257220  0.23144905    -0.23400
H1668       H  0.78698402  0.65318820  0.24093662     0.17900
C1669       C  0.76908565  0.30672125  0.23817749    -0.27400
C1670       C  0.77830687  0.30807358  0.22201182     0.06200
C1671       C  0.78081596  0.29255298  0.21179387     0.25800
C1672       C  0.77433644  0.27611470  0.21776822    -0.11900
C1673       C  0.76528785  0.27484398  0.23400735    -0.25800
C1674       C  0.76260121  0.29031831  0.24410003     0.36600
C1675       C  0.78580018  0.32550818  0.21621703     0.06200
F1676       F  0.78933226  0.29332232  0.19591779    -0.19600
H1677       H  0.77646308  0.26433795  0.20979096     0.16000
F1678       F  0.75363933  0.28953390  0.25972166    -0.23300
H1679       H  0.76713889  0.31836322  0.24639139     0.17800
C1680       C  0.77545010  0.34111752  0.21588609     0.25800
C1681       C  0.78282053  0.35732793  0.21016679    -0.11900
C1682       C  0.80059767  0.35826419  0.20462040    -0.25900
C1683       C  0.81103684  0.34272615  0.20558823     0.36700
C1684       C  0.80368404  0.32663294  0.21124851    -0.27500
F1685       F  0.75805716  0.34057155  0.22049028    -0.19700
H1686       H  0.77447957  0.36901690  0.20955313     0.16000
F1687       F  0.82854081  0.34306295  0.20142082    -0.23400
H1688       H  0.81208826  0.31498409  0.21191035     0.17900
C1689       C  0.66426882  0.79728558  0.20480657    -0.27400
C1690       C  0.66576625  0.77951576  0.21025080     0.06200
C1691       C  0.65045520  0.76870918  0.20989155     0.25800
C1692       C  0.63420378  0.77555876  0.20376398    -0.11900
C1693       C  0.63299311  0.79317743  0.19769555    -0.25800
C1694       C  0.64819865  0.80402992  0.19853775     0.36600
C1695       C  0.68328428  0.77272525  0.21653533     0.06200
F1696       F  0.65132851  0.75138309  0.21482933    -0.19600
H1697       H  0.62272805  0.76692431  0.20316601     0.16000
F1698       F  0.64751372  0.82135133  0.19356405    -0.23300
H1699       H  0.67561583  0.80608421  0.20549811     0.17800
C1700       C  0.69902024  0.77650616  0.20706214     0.25800
C1701       C  0.71553960  0.77128618  0.21377507    -0.11900
C1702       C  0.71669230  0.76202239  0.22989316    -0.25900
C1703       C  0.70105639  0.75784059  0.23914551     0.36700
C1704       C  0.68454216  0.76322120  0.23257518    -0.27500
F1705       F  0.69842643  0.78508520  0.19119983    -0.19700
H1706       H  0.72745762  0.77449426  0.20640957     0.16000
F1707       F  0.70182167  0.74856032  0.25459766    -0.23400
H1708       H  0.67275081  0.76028166  0.24024844     0.17900
C1709       C  0.33120980  0.77962376  0.19911188    -0.27400
C1710       C  0.33034915  0.77498808  0.21716753     0.06200
C1711       C  0.34562760  0.77728090  0.22771028     0.25800
C1712       C  0.36115801  0.78455956  0.22038118    -0.11900
C1713       C  0.36173793  0.78987353  0.20247985    -0.25800
C1714       C  0.34659977  0.78704635  0.19184143     0.36600
C1715       C  0.31337440  0.76819122  0.22483526     0.06200
F1716       F  0.34532318  0.77325968  0.24528800    -0.19600
H1717       H  0.37251748  0.78666706  0.22891129     0.16000
F1718       F  0.34661751  0.79129432  0.17431345    -0.23300
H1719       H  0.31984553  0.77755749  0.19056597     0.17800
C1720       C  0.29718887  0.77692605  0.22137232     0.25800
C1721       C  0.28126498  0.77040139  0.22838539    -0.11900
C1722       C  0.28110158  0.75504678  0.23891950    -0.25900
C1723       C  0.29718251  0.74632512  0.24251799     0.36700
C1724       C  0.31315298  0.75284321  0.23552152    -0.27500
F1725       F  0.29678479  0.79200539  0.21148294    -0.19700
H1726       H  0.26898954  0.77730772  0.22556821     0.16000
F1727       F  0.29741728  0.73156689  0.25289523    -0.23400
H1728       H  0.32533794  0.74575704  0.23827456     0.17900
C1729       C  0.68434174  0.22903038  0.75635152    -0.27400
C1730       C  0.68293232  0.21773137  0.77117772     0.06200
C1731       C  0.69840800  0.21393730  0.78100807     0.25800
C1732       C  0.71485462  0.22105933  0.77593852    -0.11900
C1733       C  0.71625552  0.23209664  0.76098390    -0.25800
C1734       C  0.70082046  0.23611600  0.75127294     0.36600
C1735       C  0.66554613  0.20952303  0.77618257     0.06200
F1736       F  0.69758731  0.20346372  0.79567493    -0.19600
H1737       H  0.72657211  0.21781196  0.78358531     0.16000
F1738       F  0.70174840  0.24680290  0.73676419    -0.23300
H1739       H  0.67272192  0.23208458  0.74847595     0.17800
C1740       C  0.65012405  0.21981727  0.77871482     0.25800
C1741       C  0.63438566  0.21190999  0.78497938    -0.11900
C1742       C  0.63370575  0.19362063  0.78881112    -0.25900
C1743       C  0.64880786  0.18321762  0.78512846     0.36700
C1744       C  0.66447232  0.19110542  0.77897596    -0.27500
F1745       F  0.65050307  0.23764297  0.77602578    -0.19700
H1746       H  0.62298089  0.22024334  0.78758560     0.16000
F1747       F  0.64849364  0.16534021  0.78746307    -0.23400
H1748       H  0.67592842  0.18277582  0.77655044     0.17900
C1749       C  0.33057483  0.20213544  0.80784109    -0.27400
C1750       C  0.33090983  0.20976265  0.79080094     0.06200
C1751       C  0.34722494  0.21053753  0.78166186     0.25800
C1752       C  0.36263285  0.20338542  0.78927476    -0.11900
C1753       C  0.36211406  0.19516904  0.80604888    -0.25800
C1754       C  0.34589302  0.19485864  0.81537025     0.36600
C1755       C  0.31420310  0.21670668  0.78273047     0.06200
F1756       F  0.34818813  0.21757407  0.76507824    -0.19600
H1757       H  0.37486897  0.20376876  0.78175305     0.16000
F1758       F  0.34479876  0.18781363  0.83193609    -0.23300
H1759       H  0.31837542  0.20185436  0.81543551     0.17800
C1760       C  0.29834578  0.20676407  0.78345252     0.25800
C1761       C  0.28267649  0.21349932  0.77611847    -0.11900
C1762       C  0.28248171  0.23015194  0.76776410    -0.25900
C1763       C  0.29826722  0.24006528  0.76689136     0.36700
C1764       C  0.31391544  0.23344073  0.77439492    -0.27500
F1765       F  0.29803146  0.19035957  0.79094548    -0.19700
H1766       H  0.27062674  0.20571071  0.77696048     0.16000
F1767       F  0.29854129  0.25613937  0.75870751    -0.23400
H1768       H  0.32578995  0.24151317  0.77385426     0.17900
C1769       C  0.68587524  0.23175643  0.23161670    -0.27400
C1770       C  0.68498151  0.21696089  0.22030168     0.06200
C1771       C  0.70087208  0.20813248  0.21580352     0.25800
C1772       C  0.71705506  0.21369785  0.22299015    -0.11900
C1773       C  0.71784700  0.22827878  0.23448020    -0.25800
C1774       C  0.70211795  0.23739474  0.23864631     0.36600
C1775       C  0.66751534  0.21049488  0.21362281     0.06200
F1776       F  0.70077673  0.19442408  0.20410797    -0.19600
H1777       H  0.72923053  0.20671421  0.21930836     0.16000
F1778       F  0.70254487  0.25174990  0.24952818    -0.23300
H1779       H  0.67384117  0.23884368  0.23526180     0.17800
C1780       C  0.66290469  0.19245316  0.21519353     0.25800
C1781       C  0.64688865  0.18619057  0.20828827    -0.11900
C1782       C  0.63483630  0.19778721  0.20008317    -0.25900
C1783       C  0.63901806  0.21597138  0.19905398     0.36700
C1784       C  0.65527054  0.22225296  0.20574524    -0.27500
F1785       F  0.67378879  0.18085477  0.22366094    -0.19700
H1786       H  0.64386845  0.17218020  0.20935375     0.16000
F1787       F  0.62786173  0.22746349  0.19080150    -0.23400
H1788       H  0.65848328  0.23619270  0.20440215     0.17900
C1789       C  0.29757104  0.20946295  0.21320139    -0.27400
C1790       C  0.31314843  0.21229332  0.22311710     0.06200
C1791       C  0.31201025  0.22206411  0.23901537     0.25800
C1792       C  0.29568258  0.22885250  0.24474470    -0.11900
C1793       C  0.28019239  0.22601459  0.23480340    -0.25800
C1794       C  0.28123470  0.21616291  0.21901166     0.36600
C1795       C  0.33039663  0.20483735  0.21689347     0.06200
F1796       F  0.32658480  0.22462516  0.24926543    -0.19600
H1797       H  0.29506747  0.23628833  0.25704351     0.16000
F1798       F  0.26642459  0.21280966  0.20936257    -0.23300
H1799       H  0.29806826  0.20207706  0.20087186     0.17800
C1800       C  0.33166806  0.18695500  0.21166747     0.25800
C1801       C  0.34762846  0.18019090  0.20508439    -0.11900
C1802       C  0.36278254  0.19098844  0.20357478    -0.25900
C1803       C  0.36171021  0.20877691  0.20924626     0.36700
C1804       C  0.34564440  0.21559866  0.21580038    -0.27500
F1805       F  0.31749570  0.17591604  0.21306816    -0.19700
H1806       H  0.34809270  0.16638557  0.20108218     0.16000
F1807       F  0.37584708  0.21982038  0.20764207    -0.23400
H1808       H  0.34498115  0.22946509  0.21956605     0.17900
C1809       C  0.21936071  0.64371477  0.22117832    -0.27400
C1810       C  0.20940735  0.65947786  0.22246306     0.06200
C1811       C  0.19134250  0.65904170  0.21789612     0.25800
C1812       C  0.18362393  0.64337142  0.21169487    -0.11900
C1813       C  0.19361671  0.62768557  0.20999772    -0.25800
C1814       C  0.21156084  0.62792997  0.21508872     0.36600
C1815       C  0.21786386  0.67637394  0.22826902     0.06200
F1816       F  0.18104054  0.67372802  0.21962336    -0.19600
H1817       H  0.16969382  0.64355297  0.20824299     0.16000
F1818       F  0.22179230  0.61321091  0.21342533    -0.23300
H1819       H  0.23334237  0.64372663  0.22444046     0.17800
C1820       C  0.22868345  0.67696612  0.24349087     0.25800
C1821       C  0.23615042  0.69303703  0.24900793    -0.11900
C1822       C  0.23294484  0.70876687  0.23954248    -0.25900
C1823       C  0.22228386  0.70827846  0.22431570     0.36700
C1824       C  0.21490498  0.69218330  0.21867606    -0.27500
F1825       F  0.23156296  0.66215924  0.25338054    -0.19700
H1826       H  0.24430229  0.69329534  0.26085042     0.16000
F1827       F  0.21880869  0.72339408  0.21511451    -0.23400
H1828       H  0.20683826  0.69207016  0.20678136     0.17900
C1829       C  0.23394479  0.30660096  0.23416428    -0.27400
C1830       C  0.22199383  0.30701180  0.21984303     0.06200
C1831       C  0.21664057  0.29077927  0.21217160     0.25800
C1832       C  0.22237811  0.27458466  0.21929168    -0.11900
C1833       C  0.23407261  0.27422885  0.23373182    -0.25800
C1834       C  0.24006447  0.29037210  0.24095320     0.36600
C1835       C  0.21487141  0.32426132  0.21316280     0.06200
F1836       F  0.20614357  0.29057186  0.19753362    -0.19600
H1837       H  0.21781566  0.26228392  0.21342400     0.16000
F1838       F  0.25172436  0.29039937  0.25468196    -0.23300
H1839       H  0.23836437  0.31885936  0.24024845     0.17800
C1840       C  0.19655037  0.32644888  0.21040526     0.25800
C1841       C  0.18994043  0.34220414  0.20316851    -0.11900
C1842       C  0.20130079  0.35637036  0.19893527    -0.25900
C1843       C  0.21954531  0.35459909  0.20239826     0.36700
C1844       C  0.22625325  0.33863561  0.20940703    -0.27500
F1845       F  0.18494647  0.31341300  0.21492954    -0.19700
H1846       H  0.17580831  0.34335943  0.20089150     0.16000
F1847       F  0.23096524  0.36789263  0.19817520    -0.23400
H1848       H  0.24040360  0.33732636  0.21146212     0.17900
C1849       C  0.28818375  0.29625961  0.16699955    -0.27400
C1850       C  0.28429826  0.27803918  0.16796847     0.06200
C1851       C  0.28712428  0.26744909  0.15276996     0.25800
C1852       C  0.29413807  0.27493002  0.13718561    -0.11900
C1853       C  0.29870233  0.29299658  0.13655243    -0.25800
C1854       C  0.29538206  0.30366369  0.15155276     0.36600
C1855       C  0.27731476  0.27028939  0.18482470     0.06200
F1856       F  0.28386413  0.24972117  0.15321461    -0.19600
H1857       H  0.29671056  0.26643890  0.12586683     0.16000
F1858       F  0.29897475  0.32133566  0.15126679    -0.23300
H1859       H  0.28565885  0.30482011  0.17827827     0.17800
C1860       C  0.28525847  0.27421203  0.20134660     0.25800
C1861       C  0.27830023  0.26713928  0.21712050    -0.11900
C1862       C  0.26340296  0.25601855  0.21668845    -0.25900
C1863       C  0.25560522  0.25190145  0.20026142     0.36700
C1864       C  0.26243670  0.25904950  0.18452232    -0.27500
F1865       F  0.29993991  0.28461159  0.20222248    -0.19700
H1866       H  0.28450625  0.27033068  0.22969273     0.16000
F1867       F  0.24134654  0.24092546  0.19947870    -0.23400
H1868       H  0.25593187  0.25596545  0.17208106     0.17900
C1869       C  0.27932819  0.28408798  0.80067122    -0.27400
C1870       C  0.27897571  0.27408413  0.81648249     0.06200
C1871       C  0.27134175  0.25700931  0.81616368     0.25800
C1872       C  0.26433475  0.25016567  0.80037678    -0.11900
C1873       C  0.26488226  0.26010618  0.78459227    -0.25800
C1874       C  0.27249562  0.27714388  0.78484730     0.36600
C1875       C  0.28697523  0.28134247  0.83306301     0.06200
F1876       F  0.27113304  0.24670457  0.83097048    -0.19600
H1877       H  0.25854349  0.23699409  0.80040434     0.16000
F1878       F  0.27360200  0.28692751  0.76973215    -0.23300
H1879       H  0.28495231  0.29732603  0.80055939     0.17800
C1880       C  0.30394189  0.28907897  0.83278871     0.25800
C1881       C  0.31141932  0.29584802  0.84835426    -0.11900
C1882       C  0.30226020  0.29511309  0.86465873    -0.25900
C1883       C  0.28528526  0.28729773  0.86496007     0.36700
C1884       C  0.27776269  0.28053582  0.84931068    -0.27500
F1885       F  0.31356337  0.28968929  0.81754373    -0.19700
H1886       H  0.32461385  0.30143201  0.84757652     0.16000
F1887       F  0.27569421  0.28659433  0.88019197    -0.23400
H1888       H  0.26456564  0.27488612  0.84984625     0.17900
C1889       C  0.18291719  0.25328667  0.26674563    -0.27400
C1890       C  0.18257516  0.26873429  0.27722643     0.06200
C1891       C  0.19853397  0.27809804  0.27994053     0.25800
C1892       C  0.21447882  0.27186267  0.27276495    -0.11900
C1893       C  0.21486330  0.25629874  0.26257455    -0.25800
C1894       C  0.19890973  0.24710051  0.25949168     0.36600
C1895       C  0.16588136  0.27472093  0.28600987     0.06200
F1896       F  0.19870212  0.29334842  0.28954247    -0.19600
H1897       H  0.22661699  0.27901596  0.27548235     0.16000
F1898       F  0.19888872  0.23196865  0.24969680    -0.23300
H1899       H  0.17087568  0.24575673  0.26456123     0.17800
C1900       C  0.15002559  0.27718450  0.27642326     0.25800
C1901       C  0.13489016  0.28405128  0.28489134    -0.11900
C1902       C  0.13530185  0.28861008  0.30301458    -0.25900
C1903       C  0.15091857  0.28530858  0.31271109     0.36700
C1904       C  0.16595157  0.27845071  0.30428590    -0.27500
F1905       F  0.14937918  0.27372095  0.25874125    -0.19700
H1906       H  0.12305205  0.28641989  0.27711077     0.16000
F1907       F  0.15166636  0.28853447  0.33042939    -0.23400
H1908       H  0.17779755  0.27614391  0.31208372     0.17900
C1909       C  0.80220980  0.27422298  0.28174677    -0.27400
C1910       C  0.81726877  0.27175832  0.27095414     0.06200
C1911       C  0.81569947  0.26107173  0.25569198     0.25800
C1912       C  0.79934507  0.25338441  0.25125880    -0.11900
C1913       C  0.78427665  0.25616328  0.26190685    -0.25800
C1914       C  0.78586995  0.26661329  0.27725151     0.36600
C1915       C  0.83433725  0.28061101  0.27572274     0.06200
F1916       F  0.82974845  0.25866420  0.24467402    -0.19600
H1917       H  0.79828789  0.24558078  0.23921993     0.16000
F1918       F  0.77149460  0.27005936  0.28750962    -0.23300
H1919       H  0.80306987  0.28222981  0.29365959     0.17800
C1920       C  0.83466167  0.29873221  0.28024132     0.25800
C1921       C  0.85022652  0.30661520  0.28654899    -0.11900
C1922       C  0.86596232  0.29674576  0.28840931    -0.25900
C1923       C  0.86593667  0.27884922  0.28288304     0.36700
C1924       C  0.85024886  0.27089786  0.27666897    -0.27500
F1925       F  0.81986046  0.30886160  0.27861495    -0.19700
H1926       H  0.84986079  0.32051950  0.29017648     0.16000
F1927       F  0.88072462  0.26871525  0.28436244    -0.23400
H1928       H  0.85037989  0.25692515  0.27326518     0.17900
C1929       C  0.30221303  0.15926506  0.28677864    -0.27400
C1930       C  0.28428052  0.15902465  0.28181320     0.06200
C1931       C  0.27520723  0.14262294  0.28202794     0.25800
C1932       C  0.28380661  0.12706329  0.28771872    -0.11900
C1933       C  0.30157248  0.12749946  0.29336175    -0.25800
C1934       C  0.31078221  0.14380783  0.29244863     0.36600
C1935       C  0.27551029  0.17589056  0.27608141     0.06200
F1936       F  0.25786131  0.14169272  0.27734268    -0.19600
H1937       H  0.27636286  0.11477232  0.28822810     0.16000
F1938       F  0.32822990  0.14490264  0.29667679    -0.23300
H1939       H  0.30974652  0.17150213  0.28609252     0.17800
C1940       C  0.27795135  0.19181846  0.28569219     0.25800
C1941       C  0.27097665  0.20787869  0.27936383    -0.11900
C1942       C  0.26130126  0.20836265  0.26348194    -0.25900
C1943       C  0.25822166  0.19244755  0.25424774     0.36700
C1944       C  0.26535346  0.17641557  0.26042763    -0.27500
F1945       F  0.28701265  0.19186160  0.30126761    -0.19700
H1946       H  0.27326262  0.22000315  0.28675527     0.16000
F1947       F  0.24838499  0.19247431  0.23915700    -0.23400
H1948       H  0.26332062  0.16447947  0.25268001     0.17900
C1949       C  0.28079972  0.82426166  0.30771558    -0.27400
C1950       C  0.27946873  0.82341522  0.28918315     0.06200
C1951       C  0.28240523  0.83886377  0.27905470     0.25800
C1952       C  0.28728920  0.85474895  0.28744015    -0.11900
C1953       C  0.28931204  0.85537293  0.30598341    -0.25800
C1954       C  0.28557517  0.84005189  0.31607835     0.36600
C1955       C  0.27450447  0.80640739  0.28077363     0.06200
F1956       F  0.28117700  0.83840620  0.26106716    -0.19600
H1957       H  0.29010588  0.86635890  0.27940827     0.16000
F1958       F  0.28630025  0.84034037  0.33409216    -0.23300
H1959       H  0.27802498  0.81263507  0.31575544     0.17800
C1960       C  0.28406990  0.79076587  0.28446913     0.25800
C1961       C  0.27827302  0.77445340  0.27779107    -0.11900
C1962       C  0.26286882  0.77358058  0.26746323    -0.25900
C1963       C  0.25358804  0.78921610  0.26336574     0.36700
C1964       C  0.25939396  0.80551819  0.26997426    -0.27500
F1965       F  0.29895428  0.79129295  0.29458431    -0.19700
H1966       H  0.28559442  0.76246846  0.28088314     0.16000
F1967       F  0.23878165  0.78861759  0.25314000    -0.23400
H1968       H  0.25180146  0.81738815  0.26710530     0.17900
C1969       C  0.27966267  0.70481450  0.20399237    -0.27400
C1970       C  0.27796862  0.71540361  0.18864577     0.06200
C1971       C  0.26846422  0.73143238  0.18976142     0.25800
C1972       C  0.26089653  0.73668848  0.20588582    -0.11900
C1973       C  0.26282889  0.72622996  0.22122398    -0.25800
C1974       C  0.27227236  0.71021487  0.22018375     0.36600
C1975       C  0.28636534  0.70972683  0.17168304     0.06200
F1976       F  0.26707966  0.74234475  0.17546121    -0.19600
H1977       H  0.25382017  0.74919042  0.20654954     0.16000
F1978       F  0.27476233  0.70008300  0.23489195    -0.23300
H1979       H  0.28683001  0.69236414  0.20344872     0.17800
C1980       C  0.30418815  0.70431410  0.17134866     0.25800
C1981       C  0.31174455  0.69789682  0.15567582    -0.11900
C1982       C  0.30184526  0.69693233  0.13987360    -0.25900
C1983       C  0.28420054  0.70300552  0.13998856     0.36700
C1984       C  0.27654126  0.70926323  0.15579550    -0.27500
F1985       F  0.31440266  0.70543798  0.18615235    -0.19700
H1986       H  0.32548501  0.69375475  0.15592113     0.16000
F1987       F  0.27411525  0.70217716  0.12509238    -0.23400
H1988       H  0.26276347  0.71330983  0.15573479     0.17900
C1989       C  0.28536773  0.71200317  0.80333976    -0.27400
C1990       C  0.27709738  0.71582633  0.81965936     0.06200
C1991       C  0.26164638  0.72631430  0.81964265     0.25800
C1992       C  0.25456230  0.73258675  0.80359351    -0.11900
C1993       C  0.26289839  0.72877010  0.78734963    -0.25800
C1994       C  0.27841878  0.71848989  0.78734626     0.36600
C1995       C  0.28466504  0.70875045  0.83652949     0.06200
F1996       F  0.25325437  0.73024600  0.83510558    -0.19600
H1997       H  0.24267236  0.74064878  0.80382147     0.16000
F1998       F  0.28690742  0.71486290  0.77187039    -0.23300
H1999       H  0.29739911  0.70416255  0.80301741     0.17800
C2000       C  0.28848964  0.69055741  0.83830840     0.25800
C2001       C  0.29637184  0.68405749  0.85383067    -0.11900
C2002       C  0.30053299  0.69547098  0.86802611    -0.25900
C2003       C  0.29637722  0.71362898  0.86642283     0.36700
C2004       C  0.28853643  0.72016826  0.85080442    -0.27500
F2005       F  0.28440251  0.67900070  0.82509044    -0.19700
H2006       H  0.29918917  0.66998157  0.85474869     0.16000
F2007       F  0.30064336  0.72519984  0.87955087    -0.23400
H2008       H  0.28589837  0.73426531  0.84966923     0.17900
C2009       C  0.69224990  0.27354567  0.16663667    -0.27400
C2010       C  0.71074595  0.27161344  0.16701902     0.06200
C2011       C  0.72050387  0.27500134  0.15141899     0.25800
C2012       C  0.71192742  0.28107120  0.13603222    -0.11900
C2013       C  0.69352134  0.28390934  0.13596728    -0.25800
C2014       C  0.68368643  0.27958113  0.15130952     0.36600
C2015       C  0.71970895  0.26649323  0.18384256     0.06200
F2016       F  0.73841492  0.27328842  0.15131869    -0.19600
H2017       H  0.71978269  0.28427328  0.12441120     0.16000
F2018       F  0.66575411  0.28108778  0.15151355    -0.23300
H2019       H  0.68442066  0.27050566  0.17832955     0.17800
C2020       C  0.71661436  0.27607182  0.19962813     0.25800
C2021       C  0.72483623  0.27099421  0.21551885    -0.11900
C2022       C  0.73611234  0.25622152  0.21594876    -0.25900
C2023       C  0.73932707  0.24671367  0.20020666     0.36700
C2024       C  0.73124407  0.25186654  0.18428738    -0.27500
F2025       F  0.70570657  0.29040484  0.19964425    -0.19700
H2026       H  0.72212807  0.27833758  0.22758674     0.16000
F2027       F  0.75001166  0.23220797  0.20036741    -0.23400
H2028       H  0.73368202  0.24419747  0.17236313     0.17900
C2029       C  0.72580889  0.27920128  0.84667919    -0.27400
C2030       C  0.71431811  0.27433620  0.83274804     0.06200
C2031       C  0.69594261  0.27420109  0.83600486     0.25800
C2032       C  0.68924661  0.28015294  0.85225685    -0.11900
C2033       C  0.70065911  0.28586135  0.86583888    -0.25800
C2034       C  0.71907118  0.28478880  0.86314942     0.36600
C2035       C  0.72150743  0.26952458  0.81492138     0.06200
F2036       F  0.68441120  0.26827338  0.82350101    -0.19600
H2037       H  0.67501345  0.28055606  0.85416495     0.16000
F2038       F  0.73050333  0.29020144  0.87596461    -0.23300
H2039       H  0.74002069  0.27925992  0.84460935     0.17800
C2040       C  0.71409058  0.27653541  0.79917210     0.25800
C2041       C  0.72060285  0.27136560  0.78252291    -0.11900
C2042       C  0.73491861  0.25958816  0.78129280    -0.25900
C2043       C  0.74268825  0.25300593  0.79691175     0.36700
C2044       C  0.73598543  0.25786231  0.81354573    -0.27500
F2045       F  0.70084956  0.28872145  0.79985390    -0.19700
H2046       H  0.71456453  0.27663018  0.77057752     0.16000
F2047       F  0.75658910  0.24159833  0.79601097    -0.23400
H2048       H  0.74196453  0.25229069  0.82538006     0.17900
C2049       C  0.28775505  0.19615595  0.72114898    -0.27400
C2050       C  0.27843875  0.18013545  0.72375134     0.06200
C2051       C  0.26253945  0.18048053  0.73355519     0.25800
C2052       C  0.25609610  0.19650735  0.74039494    -0.11900
C2053       C  0.26537985  0.21244536  0.73769990    -0.25800
C2054       C  0.28129739  0.21218110  0.72803578     0.36600
C2055       C  0.28528568  0.16324215  0.71605089     0.06200
F2056       F  0.25296564  0.16542022  0.73610776    -0.19600
H2057       H  0.24376777  0.19653703  0.74778777     0.16000
F2058       F  0.29043181  0.22744085  0.72507958    -0.23300
H2059       H  0.30011575  0.19624015  0.71381922     0.17800
C2060       C  0.29061757  0.16245009  0.69816991     0.25800
C2061       C  0.29768443  0.14678786  0.69116728    -0.11900
C2062       C  0.29952345  0.13143877  0.70171072    -0.25900
C2063       C  0.29371328  0.13205191  0.71948715     0.36700
C2064       C  0.28674645  0.14783102  0.72655702    -0.27500
F2065       F  0.28872469  0.17675361  0.68733056    -0.19700
H2066       H  0.30161502  0.14669899  0.67733529     0.16000
F2067       F  0.29537475  0.11769481  0.73026329    -0.23400
H2068       H  0.28285911  0.14812247  0.74040817     0.17900
C2069       C  0.27885412  0.79402604  0.71788017    -0.27400
C2070       C  0.27819639  0.80928969  0.72863294     0.06200
C2071       C  0.27052068  0.80804780  0.74561468     0.25800
C2072       C  0.26351510  0.79189626  0.75157832    -0.11900
C2073       C  0.26420205  0.77665384  0.74084351    -0.25800
C2074       C  0.27211346  0.77780401  0.72396935     0.36600
C2075       C  0.28594965  0.82626649  0.72218178     0.06200
F2076       F  0.27025839  0.82230803  0.75662993    -0.19600
H2077       H  0.25755816  0.79122547  0.76466127     0.16000
F2078       F  0.27352805  0.76321790  0.71349057    -0.23300
H2079       H  0.28467461  0.79466951  0.70473477     0.17800
C2080       C  0.30327273  0.82666940  0.71534670     0.25800
C2081       C  0.31029820  0.84241657  0.70850790    -0.11900
C2082       C  0.30026682  0.85817058  0.70828496    -0.25900
C2083       C  0.28309599  0.85793514  0.71562483     0.36700
C2084       C  0.27602860  0.84208952  0.72248832    -0.27500
F2085       F  0.31349734  0.81182923  0.71541188    -0.19700
H2086       H  0.32368972  0.84222114  0.70332944     0.16000
F2087       F  0.27283125  0.87272803  0.71542680    -0.23400
H2088       H  0.26260199  0.84205669  0.72760475     0.17900
C2089       C  0.20010042  0.27422711  0.71525147    -0.27400
C2090       C  0.18423637  0.27145037  0.72474687     0.06200
C2091       C  0.18502100  0.26218822  0.74100053     0.25800
C2092       C  0.20127760  0.25579935  0.74743530    -0.11900
C2093       C  0.21704366  0.25846259  0.73781973    -0.25800
C2094       C  0.21633114  0.26788320  0.72172049     0.36600
C2095       C  0.16706928  0.27826528  0.71753121     0.06200
F2096       F  0.17015731  0.25969602  0.75087347    -0.19600
H2097       H  0.20160793  0.24875265  0.75998658     0.16000
F2098       F  0.23138273  0.27116925  0.71239343    -0.23300
H2099       H  0.19990689  0.28123557  0.70268099     0.17800
C2100       C  0.16566848  0.29585635  0.71137931     0.25800
C2101       C  0.15001471  0.30185051  0.70343277    -0.11900
C2102       C  0.13524392  0.29057827  0.70145711    -0.25900
C2103       C  0.13638393  0.27313255  0.70811905     0.36700
C2104       C  0.15215980  0.26707134  0.71604985    -0.27500
F2105       F  0.17942431  0.30735939  0.71315752    -0.19700
H2106       H  0.14949150  0.31546224  0.69880535     0.16000
F2107       F  0.12263209  0.26167112  0.70619841    -0.23400
H2108       H  0.15291807  0.25341604  0.72052619     0.17900
C2109       C  0.84678936  0.28388614  0.72147978    -0.27400
C2110       C  0.83073041  0.28401558  0.71193086     0.06200
C2111       C  0.83070253  0.29147029  0.69473771     0.25800
C2112       C  0.84621129  0.29877530  0.68751812    -0.11900
C2113       C  0.86225102  0.29860257  0.69704167    -0.25800
C2114       C  0.86239643  0.29094284  0.71410973     0.36600
C2115       C  0.81410241  0.27654243  0.71991137     0.06200
F2116       F  0.81578095  0.29133247  0.68466274    -0.19600
H2117       H  0.84569851  0.30434619  0.67425805     0.16000
F2118       F  0.87743793  0.29085317  0.72398153    -0.23300
H2119       H  0.84721881  0.27859483  0.73485395     0.17800
C2120       C  0.81411585  0.26012488  0.72898591     0.25800
C2121       C  0.79834891  0.25317514  0.73604855    -0.11900
C2122       C  0.78223683  0.26231233  0.73413863    -0.25900
C2123       C  0.78214622  0.27866118  0.72515268     0.36700
C2124       C  0.79791982  0.28575581  0.71829544    -0.27500
F2125       F  0.82923807  0.25048907  0.73056547    -0.19700
H2126       H  0.79865072  0.24051123  0.74288734     0.16000
F2127       F  0.76672527  0.28761051  0.72273740    -0.23400
H2128       H  0.79745487  0.29853077  0.71169573     0.17900
C2129       C  0.71931386  0.14648952  0.28465204    -0.27400
C2130       C  0.70947496  0.16136994  0.27905438     0.06200
C2131       C  0.69087805  0.15990810  0.27811894     0.25800
C2132       C  0.68237134  0.14435854  0.28369350    -0.11900
C2133       C  0.69216927  0.12969946  0.28973703    -0.25800
C2134       C  0.71078119  0.13075112  0.28984879     0.36600
C2135       C  0.71863848  0.17827255  0.27420404     0.06200
F2136       F  0.68089830  0.17338209  0.27151482    -0.19600
H2137       H  0.66802938  0.14373091  0.28320405     0.16000
F2138       F  0.72068315  0.11694270  0.29583955    -0.23300
H2139       H  0.73363415  0.14720126  0.28543219     0.17800
C2140       C  0.71253820  0.19482002  0.28055365     0.25800
C2141       C  0.72078413  0.21063115  0.27520467    -0.11900
C2142       C  0.73542498  0.21023005  0.26374895    -0.25900
C2143       C  0.74196885  0.19377222  0.25792273     0.36700
C2144       C  0.73363252  0.17796202  0.26308972    -0.27500
F2145       F  0.69874630  0.19571997  0.29210978    -0.19700
H2146       H  0.71563022  0.22323751  0.27982373     0.16000
F2147       F  0.75608724  0.19306544  0.24675342    -0.23400
H2148       H  0.73864244  0.16546729  0.25803234     0.17900
C2149       C  0.68934826  0.82730310  0.28406818    -0.27400
C2150       C  0.70724145  0.82833391  0.27904480     0.06200
C2151       C  0.71595447  0.84485882  0.28020169     0.25800
C2152       C  0.70696855  0.85986193  0.28663879    -0.11900
C2153       C  0.68918363  0.85867979  0.29213676    -0.25800
C2154       C  0.68038946  0.84222384  0.29050693     0.36600
C2155       C  0.71651755  0.81214192  0.27248099     0.06200
F2156       F  0.73331199  0.84638415  0.27567290    -0.19600
H2157       H  0.71408858  0.87230378  0.28776752     0.16000
F2158       F  0.66296767  0.84054785  0.29468592    -0.23300
H2159       H  0.68218870  0.81488815  0.28282496     0.17800
C2160       C  0.71546190  0.79597079  0.28190546     0.25800
C2161       C  0.72370343  0.78067456  0.27532818    -0.11900
C2162       C  0.73307410  0.78116119  0.25924759    -0.25900
C2163       C  0.73424846  0.79726274  0.24984198     0.36700
C2164       C  0.72605820  0.81259946  0.25642990    -0.27500
F2165       F  0.70663731  0.79499184  0.29759859    -0.19700
H2166       H  0.72268930  0.76836348  0.28272441     0.16000
F2167       F  0.74336750  0.79813562  0.23431033    -0.23400
H2168       H  0.72690088  0.82478531  0.24881485     0.17900
C2169       C  0.15020285  0.70644225  0.27751344    -0.27400
C2170       C  0.16411226  0.71160013  0.28886806     0.06200
C2171       C  0.16110794  0.71151921  0.30731621     0.25800
C2172       C  0.14495033  0.70553094  0.31421041    -0.11900
C2173       C  0.13124456  0.69978710  0.30293877    -0.25800
C2174       C  0.13389526  0.70061077  0.28444182     0.36600
C2175       C  0.18169536  0.71694048  0.28148937     0.06200
F2176       F  0.17373549  0.71742485  0.31871993    -0.19600
H2177       H  0.14316550  0.70534815  0.32848920     0.16000
F2178       F  0.12113884  0.69492167  0.27308658    -0.23300
H2179       H  0.15215393  0.70644910  0.26325560     0.17800
C2180       C  0.19756387  0.70954613  0.28811695     0.25800
C2181       C  0.21402960  0.71506983  0.28146223    -0.11900
C2182       C  0.21498494  0.72782202  0.26792693    -0.25900
C2183       C  0.19921026  0.73499307  0.26104442     0.36700
C2184       C  0.18273539  0.72958306  0.26776899    -0.27500
F2185       F  0.19715028  0.69671796  0.30079473    -0.19700
H2186       H  0.22607263  0.70938036  0.28684012     0.16000
F2187       F  0.19979272  0.74747608  0.24802702    -0.23400
H2188       H  0.17076768  0.73549760  0.26246026     0.17900
C2189       C  0.81389723  0.73886106  0.26381836    -0.27400
C2190       C  0.81465374  0.72389043  0.27495018     0.06200
C2191       C  0.79878643  0.71477548  0.27895577     0.25800
C2192       C  0.78258501  0.72063180  0.27198787    -0.11900
C2193       C  0.78192759  0.73564417  0.26096758    -0.25800
C2194       C  0.79770591  0.74468643  0.25688068     0.36600
C2195       C  0.83190919  0.71798365  0.28252947     0.06200
F2196       F  0.79899225  0.70001148  0.28932892    -0.19600
H2197       H  0.77052618  0.71349268  0.27519628     0.16000
F2198       F  0.79741387  0.75913117  0.24607943    -0.23300
H2199       H  0.82584881  0.74619822  0.26066831     0.17800
C2200       C  0.84695675  0.71546891  0.27169921     0.25800
C2201       C  0.86278087  0.70889767  0.27897207    -0.11900
C2202       C  0.86387943  0.70467190  0.29712578    -0.25900
C2203       C  0.84911538  0.70816874  0.30808404     0.36700
C2204       C  0.83335117  0.71467883  0.30081966    -0.27500
F2205       F  0.84612034  0.71851859  0.25394409    -0.19700
H2206       H  0.87390224  0.70635569  0.27023504     0.16000
F2207       F  0.84985804  0.70532450  0.32587823    -0.23400
H2208       H  0.82216468  0.71707516  0.30952929     0.17900
C2209       C  0.73551222  0.73214155  0.18084664    -0.27400
C2210       C  0.72254886  0.71869419  0.18104059     0.06200
C2211       C  0.71676415  0.71204088  0.19761522     0.25800
C2212       C  0.72317296  0.71930862  0.21348398    -0.11900
C2213       C  0.73581839  0.73292922  0.21316038    -0.25800
C2214       C  0.74220160  0.73909069  0.19673671     0.36600
C2215       C  0.71526567  0.71164905  0.16399298     0.06200
F2216       F  0.70526800  0.69819517  0.19852175    -0.19600
H2217       H  0.71836438  0.71423621  0.22606862     0.16000
F2218       F  0.75475008  0.75201170  0.19610584    -0.23300
H2219       H  0.74030873  0.73745738  0.16836007     0.17800
C2220       C  0.69691929  0.70887819  0.16178971     0.25800
C2221       C  0.69036295  0.70132640  0.14614456    -0.11900
C2222       C  0.70179010  0.69698506  0.13207678    -0.25900
C2223       C  0.71999453  0.70055364  0.13382339     0.36700
C2224       C  0.72665750  0.70767796  0.14969413    -0.27500
F2225       F  0.68523544  0.71378179  0.17460188    -0.19700
H2226       H  0.67624428  0.69896007  0.14495743     0.16000
F2227       F  0.73144637  0.69631929  0.12057351    -0.23400
H2228       H  0.74081710  0.70969969  0.15095895     0.17900
C2229       C  0.72082672  0.71073285  0.84178363    -0.27400
C2230       C  0.71078316  0.71008728  0.82605933     0.06200
C2231       C  0.69353052  0.70312190  0.82677080     0.25800
C2232       C  0.68660667  0.69680623  0.84279178    -0.11900
C2233       C  0.69667020  0.69713624  0.85857904    -0.25800
C2234       C  0.71390058  0.70437191  0.85788701     0.36600
C2235       C  0.71829811  0.71666737  0.80899371     0.06200
F2236       F  0.68315823  0.70276518  0.81203551    -0.19600
H2237       H  0.67317522  0.69179850  0.84270548     0.16000
F2238       F  0.72430284  0.70495877  0.87255367    -0.23300
H2239       H  0.73422588  0.71590923  0.84153704     0.17800
C2240       C  0.72635676  0.73349260  0.80794440     0.25800
C2241       C  0.73347470  0.73951139  0.79187426    -0.11900
C2242       C  0.73248058  0.72904003  0.77648341    -0.25900
C2243       C  0.72419611  0.71234243  0.77739768     0.36700
C2244       C  0.71730957  0.70617664  0.79355267    -0.27500
F2245       F  0.72697050  0.74430234  0.82235188    -0.19700
H2246       H  0.73976819  0.75243812  0.79139127     0.16000
F2247       F  0.72262522  0.70210139  0.76265583    -0.23400
H2248       H  0.71124281  0.69314166  0.79402328     0.17900
C2249       C  0.16786803  0.70858728  0.69716577    -0.27400
C2250       C  0.16701821  0.71374826  0.71505325     0.06200
C2251       C  0.15033491  0.71415870  0.72350723     0.25800
C2252       C  0.13501380  0.70883134  0.71434815    -0.11900
C2253       C  0.13603125  0.70299488  0.69663491    -0.25800
C2254       C  0.15263511  0.70333260  0.68802508     0.36600
C2255       C  0.18359710  0.71899761  0.72445138     0.06200
F2256       F  0.14891133  0.71907320  0.74079349    -0.19600
H2257       H  0.12245578  0.70870252  0.72132602     0.16000
F2258       F  0.15420985  0.69883519  0.67064179    -0.23300
H2259       H  0.18041826  0.70874995  0.69015848     0.17800
C2260       C  0.19899491  0.70841721  0.72335828     0.25800
C2261       C  0.21495902  0.71423286  0.73087193    -0.11900
C2262       C  0.21582816  0.73054496  0.73981912    -0.25900
C2263       C  0.20035947  0.74083322  0.74144356     0.36700
C2264       C  0.18444275  0.73514077  0.73376243    -0.27500
F2265       F  0.19859443  0.69242525  0.71504739    -0.19700
H2266       H  0.22672588  0.70610754  0.72952542     0.16000
F2267       F  0.20073026  0.75651162  0.75031897    -0.23400
H2268       H  0.17287090  0.74359858  0.73469561     0.17900
C2269       C  0.83223240  0.68940152  0.70625660    -0.27400
C2270       C  0.83113954  0.70694769  0.71244323     0.06200
C2271       C  0.84665006  0.71742762  0.71250138     0.25800
C2272       C  0.86269049  0.71060316  0.70594205    -0.11900
C2273       C  0.86355336  0.69329547  0.69904338    -0.25800
C2274       C  0.84818089  0.68262197  0.69963246     0.36600
C2275       C  0.81380895  0.71416682  0.71869748     0.06200
F2276       F  0.84613654  0.73453999  0.71813443    -0.19600
H2277       H  0.87425574  0.71912554  0.70557952     0.16000
F2278       F  0.84852601  0.66552391  0.69393873    -0.23300
H2279       H  0.82065846  0.68088021  0.70654190     0.17800
C2280       C  0.79824935  0.71211827  0.70848970     0.25800
C2281       C  0.78205808  0.71899277  0.71451390    -0.11900
C2282       C  0.78107189  0.72806182  0.73074790    -0.25900
C2283       C  0.79654548  0.73008213  0.74096493     0.36700
C2284       C  0.81270086  0.72314922  0.73501469    -0.27500
F2285       F  0.79876252  0.70385175  0.69248103    -0.19700
H2286       H  0.77026460  0.71731313  0.70648721     0.16000
F2287       F  0.79605740  0.73901914  0.75660660    -0.23400
H2288       H  0.82437070  0.72472459  0.74323701     0.17900
C2289       C  0.69480981  0.16356061  0.71419846    -0.27400
C2290       C  0.71334614  0.16474512  0.71488977     0.06200
C2291       C  0.72351020  0.14969477  0.71044510     0.25800
C2292       C  0.71517298  0.13398771  0.70477374    -0.11900
C2293       C  0.69660248  0.13305483  0.70345901    -0.25800
C2294       C  0.68649480  0.14791616  0.70866650     0.36600
C2295       C  0.72176899  0.18168935  0.72052493     0.06200
F2296       F  0.74148422  0.15039988  0.71096680    -0.19600
H2297       H  0.72324829  0.12276700  0.70084391     0.16000
F2298       F  0.66851105  0.14727649  0.70869467    -0.23300
H2299       H  0.68672794  0.17481331  0.71805262     0.17800
C2300       C  0.71797677  0.19773463  0.71163265     0.25800
C2301       C  0.72505366  0.21383188  0.71774562    -0.11900
C2302       C  0.73577515  0.21420211  0.73294456    -0.25900
C2303       C  0.73969290  0.19819662  0.74174447     0.36700
C2304       C  0.73286292  0.18207622  0.73548487    -0.27500
F2305       F  0.70742229  0.19781015  0.69703469    -0.19700
H2306       H  0.72192784  0.22606071  0.71083335     0.16000
F2307       F  0.74996213  0.19823849  0.75654714    -0.23400
H2308       H  0.73580554  0.16993208  0.74262645     0.17900
C2309       C  0.73862079  0.80811599  0.72485058    -0.27400
C2310       C  0.72297189  0.80907438  0.71477134     0.06200
C2311       C  0.71316845  0.79333331  0.71198540     0.25800
C2312       C  0.71898798  0.77710349  0.71910834    -0.11900
C2313       C  0.73472593  0.77621290  0.72899537    -0.25800
C2314       C  0.74447687  0.79188388  0.73183994     0.36600
C2315       C  0.71734155  0.82631904  0.70667231     0.06200
F2316       F  0.69783032  0.79367959  0.70256956    -0.19600
H2317       H  0.71128548  0.76517623  0.71682129     0.16000
F2318       F  0.75964739  0.79147510  0.74151447    -0.23300
H2319       H  0.74652268  0.81992640  0.72704148     0.17800
C2320       C  0.71621962  0.84206770  0.71676284     0.25800
C2321       C  0.71074560  0.85809012  0.70883223    -0.11900
C2322       C  0.70620418  0.85874029  0.69072702    -0.25900
C2323       C  0.70796591  0.84307298  0.68056268     0.36700
C2324       C  0.71337639  0.82714363  0.68848310    -0.27500
F2325       F  0.71977727  0.84183790  0.73443331    -0.19700
H2326       H  0.70949998  0.86985461  0.71700205     0.16000
F2327       F  0.70479212  0.84310843  0.66281941    -0.23400
H2328       H  0.71464325  0.81539010  0.68028801     0.17900
C2329       C  0.94903560  0.92929641  0.39373336    -0.27400
C2330       C  0.94731663  0.91958458  0.40959955     0.06200
C2331       C  0.95708547  0.92491477  0.42457321     0.25800
C2332       C  0.96782516  0.93999213  0.42383241    -0.11900
C2333       C  0.96933066  0.94997176  0.40810188    -0.25800
C2334       C  0.95993812  0.94435934  0.39293283     0.36600
C2335       C  0.93516540  0.90410465  0.41059405     0.06200
F2336       F  0.95650969  0.91535704  0.43987247    -0.19600
H2337       H  0.97513049  0.94375933  0.43562790     0.16000
F2338       F  0.96090383  0.95361350  0.37747580    -0.23300
H2339       H  0.94163242  0.92540863  0.38203736     0.17800
C2340       C  0.92269053  0.90270195  0.42444516     0.25800
C2341       C  0.91165204  0.88785884  0.42563684    -0.11900
C2342       C  0.91248138  0.87438765  0.41281286    -0.25900
C2343       C  0.92463744  0.87588675  0.39874424     0.36700
C2344       C  0.93594728  0.89061944  0.39770567    -0.27500
F2345       F  0.92082375  0.91591861  0.43656143    -0.19700
H2346       H  0.90212899  0.88707631  0.43639348     0.16000
F2347       F  0.92593998  0.86285932  0.38635865    -0.23400
H2348       H  0.94548491  0.89140162  0.38696624     0.17900
C2349       C  0.06490995  0.94081250  0.42675592    -0.27400
C2350       C  0.07082859  0.93253290  0.41114716     0.06200
C2351       C  0.06407934  0.93835900  0.39471908     0.25800
C2352       C  0.05113370  0.95172743  0.39409813    -0.11900
C2353       C  0.04468138  0.95955880  0.40981439    -0.25800
C2354       C  0.05209240  0.95419889  0.42616922     0.36600
C2355       C  0.08308970  0.91711903  0.41243719     0.06200
F2356       F  0.06929207  0.93051515  0.37934996    -0.19600
H2357       H  0.04576863  0.95555010  0.38131208     0.16000
F2358       F  0.04677371  0.96159901  0.44172044    -0.23300
H2359       H  0.07008066  0.93668846  0.43953755     0.17800
C2360       C  0.09900069  0.91636645  0.40271566     0.25800
C2361       C  0.11046802  0.90183396  0.40464124    -0.11900
C2362       C  0.10636001  0.88778512  0.41631710    -0.25900
C2363       C  0.09024560  0.88850455  0.42582061     0.36700
C2364       C  0.07886985  0.90302638  0.42391112    -0.27500
F2365       F  0.10378609  0.92995187  0.39185426    -0.19700
H2366       H  0.12278432  0.90183326  0.39725787     0.16000
F2367       F  0.08515284  0.87508427  0.43672780    -0.23400
H2368       H  0.06657476  0.90320898  0.43136479     0.17900
C2369       C  0.93715496  0.04635278  0.42367071    -0.27400
C2370       C  0.92863956  0.05070662  0.40768110     0.06200
C2371       C  0.93532421  0.04373861  0.39168927     0.25800
C2372       C  0.95008380  0.03239852  0.39184079    -0.11900
C2373       C  0.95851715  0.02785551  0.40791070    -0.25800
C2374       C  0.95190666  0.03513310  0.42385820     0.36600
C2375       C  0.91305811  0.06279098  0.40801038     0.06200
F2376       F  0.92735109  0.04755983  0.37598198    -0.19600
H2377       H  0.95482601  0.02706763  0.37935290     0.16000
F2378       F  0.95975086  0.03163063  0.43970299    -0.23300
H2379       H  0.93246323  0.05185990  0.43610780     0.17800
C2380       C  0.89879115  0.05949549  0.41959665     0.25800
C2381       C  0.88509715  0.07188688  0.42136465    -0.11900
C2382       C  0.88524613  0.08781780  0.41159902    -0.25900
C2383       C  0.89920141  0.09079510  0.39946419     0.36700
C2384       C  0.91293446  0.07836723  0.39772444    -0.27500
F2385       F  0.89815894  0.04430287  0.42931518    -0.19700
H2386       H  0.87440468  0.06904360  0.43054784     0.16000
F2387       F  0.90020355  0.10611541  0.39001168    -0.23400
H2388       H  0.92388032  0.08126808  0.38885570     0.17900
C2389       C  0.05396662  0.05993547  0.39653220    -0.27400
C2390       C  0.05801786  0.06725436  0.41320883     0.06200
C2391       C  0.04999543  0.06005728  0.42846026     0.25800
C2392       C  0.03855493  0.04554348  0.42704310    -0.11900
C2393       C  0.03478705  0.03788127  0.41041797    -0.25800
C2394       C  0.04248005  0.04540141  0.39508475     0.36600
C2395       C  0.07109460  0.08190180  0.41472191     0.06200
F2396       F  0.05372200  0.06661135  0.44483667    -0.19600
H2397       H  0.03280425  0.04016852  0.43909492     0.16000
F2398       F  0.03916993  0.03862708  0.37871603    -0.23300
H2399       H  0.05980611  0.06544705  0.38458136     0.17800
C2400       C  0.08783500  0.08053213  0.40660615     0.25800
C2401       C  0.10033887  0.09408284  0.40860395    -0.11900
C2402       C  0.09651602  0.10917383  0.41888486    -0.25900
C2403       C  0.07969577  0.11061340  0.42689484     0.36700
C2404       C  0.06712511  0.09711825  0.42474587    -0.27500
F2405       F  0.09236826  0.06577383  0.39730525    -0.19700
H2406       H  0.11322634  0.09250738  0.40246129     0.16000
F2407       F  0.07519710  0.12518748  0.43647936    -0.23400
H2408       H  0.05421881  0.09857436  0.43089747     0.17900
C2409       C  0.94315981  0.93765237  0.57172994    -0.27400
C2410       C  0.93439942  0.93293157  0.58746219     0.06200
C2411       C  0.93918630  0.94125386  0.60345323     0.25800
C2412       C  0.95255777  0.95417307  0.60357375    -0.11900
C2413       C  0.96138880  0.95891313  0.58776871    -0.25800
C2414       C  0.95651552  0.95044435  0.57180708     0.36600
C2415       C  0.92051029  0.91909834  0.58684243     0.06200
F2416       F  0.93074636  0.93710318  0.61884623    -0.19600
H2417       H  0.95600036  0.96044648  0.61604813     0.16000
F2418       F  0.96483246  0.95419815  0.55624910    -0.23300
H2419       H  0.93979935  0.93117895  0.55932881     0.17800
C2420       C  0.90626817  0.92073663  0.57494836     0.25800
C2421       C  0.89415699  0.90687045  0.57298310    -0.11900
C2422       C  0.89592675  0.89116227  0.58290818    -0.25900
C2423       C  0.90999897  0.88963748  0.59508515     0.36700
C2424       C  0.92217201  0.90355577  0.59703169    -0.27500
F2425       F  0.90412046  0.93576309  0.56518744    -0.19700
H2426       H  0.88333092  0.90844465  0.56366913     0.16000
F2427       F  0.91255229  0.87439727  0.60438030    -0.23400
H2428       H  0.93327005  0.90195646  0.60602085     0.17900
C2429       C  0.94859738  0.05749787  0.56954496    -0.27400
C2430       C  0.94545439  0.06761913  0.58489027     0.06200
C2431       C  0.95381692  0.06265058  0.60084024     0.25800
C2432       C  0.96499902  0.04781231  0.60136680    -0.11900
C2433       C  0.96818948  0.03766597  0.58600398    -0.25800
C2434       C  0.95985176  0.04273607  0.57001412     0.36600
C2435       C  0.93321454  0.08309022  0.58418231     0.06200
F2436       F  0.95151056  0.07238750  0.61583367    -0.19600
H2437       H  0.97134227  0.04439528  0.61381430     0.16000
F2438       F  0.96231091  0.03333052  0.55483465    -0.23300
H2439       H  0.94210912  0.06089725  0.55716461     0.17800
C2440       C  0.93489084  0.09606841  0.57082732     0.25800
C2441       C  0.92287468  0.11017768  0.56987917    -0.11900
C2442       C  0.90894074  0.11174047  0.58221203    -0.25900
C2443       C  0.90736310  0.09882046  0.59568536     0.36700
C2444       C  0.91939496  0.08468205  0.59660937    -0.27500
F2445       F  0.94831545  0.09527248  0.55882868    -0.19700
H2446       H  0.92459074  0.11998638  0.55948649     0.16000
F2447       F  0.89381480  0.09933442  0.60753334    -0.23400
H2448       H  0.91763950  0.07468123  0.60682057     0.17900
C2449       C  0.05643079  0.93161417  0.60548475    -0.27400
C2450       C  0.06147687  0.92342303  0.58951370     0.06200
C2451       C  0.05428299  0.92970525  0.57346439     0.25800
C2452       C  0.04247755  0.94404033  0.57343901    -0.11900
C2453       C  0.03743699  0.95236108  0.58940406    -0.25800
C2454       C  0.04449230  0.94586506  0.60550706     0.36600
C2455       C  0.07429552  0.90843346  0.58962518     0.06200
F2456       F  0.05901587  0.92226681  0.55773703    -0.19600
H2457       H  0.03730167  0.94864275  0.56083055     0.16000
F2458       F  0.03998978  0.95327813  0.62130634    -0.23300
H2459       H  0.06166924  0.92685945  0.61801458     0.17800
C2460       C  0.09092862  0.91012355  0.59788725     0.25800
C2461       C  0.10314859  0.89612754  0.59733664    -0.11900
C2462       C  0.09906274  0.88015186  0.58855513    -0.25900
C2463       C  0.08216477  0.87832219  0.58074352     0.36700
C2464       C  0.07000632  0.89235704  0.58123292    -0.27500
F2465       F  0.09562833  0.92555889  0.60592060    -0.19700
H2466       H  0.11602077  0.89803229  0.60338990     0.16000
F2467       F  0.07717156  0.86289554  0.57289906    -0.23400
H2468       H  0.05712778  0.89063804  0.57510381     0.17900
C2469       C  0.06924327  0.04416468  0.60285679    -0.27400
C2470       C  0.07258098  0.05456567  0.58774668     0.06200
C2471       C  0.06169986  0.05256625  0.57269652     0.25800
C2472       C  0.04783095  0.04029021  0.57280227    -0.11900
C2473       C  0.04441580  0.02992851  0.58794753    -0.25800
C2474       C  0.05527471  0.03197246  0.60302112     0.36600
C2475       C  0.08769080  0.06710092  0.58747098     0.06200
F2476       F  0.06426181  0.06273292  0.55799902    -0.19600
H2477       H  0.03958082  0.03908829  0.56108692     0.16000
F2478       F  0.05270631  0.02189883  0.61776817    -0.23300
H2479       H  0.07766510  0.04526756  0.61445406     0.17800
C2480       C  0.09028618  0.07955693  0.60115709     0.25800
C2481       C  0.10411859  0.09191653  0.60001451    -0.11900
C2482       C  0.11554058  0.09201764  0.58524674    -0.25900
C2483       C  0.11338150  0.07895361  0.57203832     0.36700
C2484       C  0.09958984  0.06670420  0.57317765    -0.27500
F2485       F  0.07905277  0.08024912  0.61524154    -0.19700
H2486       H  0.10550202  0.10176347  0.61039544     0.16000
F2487       F  0.12470542  0.07775747  0.55808180    -0.23400
H2488       H  0.09818638  0.05683314  0.56280758     0.17900
C2489       C  0.39677264  0.93331000  0.94065282    -0.27400
C2490       C  0.41330299  0.92679003  0.93510485     0.06200
C2491       C  0.42852980  0.93136263  0.94484755     0.25800
C2492       C  0.42727725  0.94287996  0.95935162    -0.11900
C2493       C  0.41084155  0.95011609  0.96445304    -0.25800
C2494       C  0.39548415  0.94482649  0.95517165     0.36600
C2495       C  0.41469927  0.91611302  0.91860784     0.06200
F2496       F  0.44466517  0.92484047  0.94021919    -0.19600
H2497       H  0.43931877  0.94650780  0.96629158     0.16000
F2498       F  0.37928082  0.95130171  0.95957839    -0.23300
H2499       H  0.38488058  0.93003268  0.93328936     0.17800
C2500       C  0.40366136  0.90133798  0.91570057     0.25800
C2501       C  0.40499412  0.89163188  0.89992094    -0.11900
C2502       C  0.41744795  0.89636090  0.88684297    -0.25900
C2503       C  0.42831219  0.91128810  0.88965458     0.36700
C2504       C  0.42688735  0.92105417  0.90536890    -0.27500
F2505       F  0.39197810  0.89595469  0.92833517    -0.19700
H2506       H  0.39661354  0.88008118  0.89818046     0.16000
F2507       F  0.44004824  0.91669561  0.87708083    -0.23400
H2508       H  0.43521218  0.93265070  0.90713053     0.17900
C2509       C  0.38881564  0.94133265  0.06653164    -0.27400
C2510       C  0.40452090  0.93554590  0.07469063     0.06200
C2511       C  0.42088077  0.94041645  0.06717853     0.25800
C2512       C  0.42149606  0.95122604  0.05208287    -0.11900
C2513       C  0.40583238  0.95740388  0.04403720    -0.25800
C2514       C  0.38939582  0.95221075  0.05139874     0.36600
C2515       C  0.40391002  0.92413126  0.09078103     0.06200
F2516       F  0.43631157  0.93439092  0.07423173    -0.19600
H2517       H  0.43434312  0.95476730  0.04670315     0.16000
F2518       F  0.37386856  0.95768565  0.04412415    -0.23300
H2519       H  0.37607324  0.93759556  0.07204281     0.17800
C2520       C  0.41325940  0.92887246  0.10621666     0.25800
C2521       C  0.41407456  0.91720945  0.12067736    -0.11900
C2522       C  0.40556960  0.90058802  0.12010543    -0.25900
C2523       C  0.39551460  0.89622354  0.10490812     0.36700
C2524       C  0.39468779  0.90794612  0.09046115    -0.27500
F2525       F  0.42171996  0.94476027  0.10725413    -0.19700
H2526       H  0.42159682  0.92113266  0.13227487     0.16000
F2527       F  0.38730642  0.88026092  0.10344450    -0.23400
H2528       H  0.38741992  0.90404843  0.07868261     0.17900
C2529       C  0.43006725  0.04586619  0.93923183    -0.27400
C2530       C  0.41520662  0.04856097  0.92836193     0.06200
C2531       C  0.39945551  0.03930395  0.93209926     0.25800
C2532       C  0.39854975  0.02780055  0.94667381    -0.11900
C2533       C  0.41333876  0.02523431  0.95776120    -0.25800
C2534       C  0.42919082  0.03437463  0.95382893     0.36600
C2535       C  0.41618760  0.06123041  0.91332796     0.06200
F2536       F  0.38503546  0.04117121  0.92147609    -0.19600
H2537       H  0.38625313  0.02080280  0.94921330     0.16000
F2538       F  0.44373336  0.03259413  0.96429055    -0.23300
H2539       H  0.44229433  0.05295738  0.93658681     0.17800
C2540       C  0.40426704  0.07550001  0.91211609     0.25800
C2541       C  0.40549592  0.08758679  0.89806674    -0.11900
C2542       C  0.41864579  0.08575589  0.88492323    -0.25900
C2543       C  0.43053767  0.07133287  0.88614326     0.36700
C2544       C  0.42932899  0.05929881  0.90028059    -0.27500
F2545       F  0.39178645  0.07809812  0.92485475    -0.19700
H2546       H  0.39632160  0.09862174  0.89777455     0.16000
F2547       F  0.44313667  0.06854893  0.87358636    -0.23400
H2548       H  0.43858208  0.04831532  0.90096897     0.17900
C2549       C  0.42477386  0.05442024  0.05490030    -0.27400
C2550       C  0.40895128  0.06330345  0.05891384     0.06200
C2551       C  0.39313230  0.05771604  0.05079057     0.25800
C2552       C  0.39321842  0.04330338  0.03898277    -0.11900
C2553       C  0.40907379  0.03421407  0.03507198    -0.25800
C2554       C  0.42491206  0.04004274  0.04317374     0.36600
C2555       C  0.40936444  0.07857089  0.07133341     0.06200
F2556       F  0.37771149  0.06645085  0.05395130    -0.19600
H2557       H  0.38085964  0.03930806  0.03285216     0.16000
F2558       F  0.44060365  0.03184544  0.03992070    -0.23300
H2559       H  0.43709530  0.05858595  0.06101039     0.17800
C2560       C  0.40020252  0.07809275  0.08758971     0.25800
C2561       C  0.40185704  0.09214394  0.09969907    -0.11900
C2562       C  0.41266399  0.10692315  0.09582637    -0.25900
C2563       C  0.42147547  0.10747785  0.07930192     0.36700
C2564       C  0.41990312  0.09338648  0.06730770    -0.27500
F2565       F  0.39024040  0.06373624  0.09205133    -0.19700
H2566       H  0.39501226  0.09120783  0.11230967     0.16000
F2567       F  0.43139705  0.12172774  0.07449591    -0.23400
H2568       H  0.42697199  0.09401425  0.05478640     0.17900
C2569       C  0.93294686  0.38418299  0.94774264    -0.27400
C2570       C  0.92740806  0.40085270  0.94149409     0.06200
C2571       C  0.93586515  0.41624321  0.94768583     0.25800
C2572       C  0.94946991  0.41499388  0.96008846    -0.11900
C2573       C  0.95505633  0.39838021  0.96653838    -0.25800
C2574       C  0.94668302  0.38288666  0.96017485     0.36600
C2575       C  0.91274012  0.40235791  0.92863156     0.06200
F2576       F  0.93122994  0.43251128  0.94141941    -0.19600
H2577       H  0.95574626  0.42715276  0.96450889     0.16000
F2578       F  0.95169011  0.36653320  0.96588665    -0.23300
H2579       H  0.92650503  0.37218875  0.94310324     0.17800
C2580       C  0.91338671  0.39353515  0.91222503     0.25800
C2581       C  0.89998998  0.39623143  0.89969070    -0.11900
C2582       C  0.88574556  0.40772561  0.90333970    -0.25900
C2583       C  0.88487516  0.41605897  0.92006047     0.36700
C2584       C  0.89829288  0.41340291  0.93251105    -0.27500
F2585       F  0.92732385  0.38292516  0.90804157    -0.19700
H2586       H  0.90106487  0.38969310  0.88693494     0.16000
F2587       F  0.87097405  0.42654952  0.92458776    -0.23400
H2588       H  0.89745678  0.42005804  0.94524247     0.17900
C2589       C  0.07854590  0.38782980  0.91013360    -0.27400
C2590       C  0.06357926  0.39884712  0.91100559     0.06200
C2591       C  0.06094653  0.41164065  0.89764849     0.25800
C2592       C  0.07345975  0.41381222  0.88409279    -0.11900
C2593       C  0.08884331  0.40328807  0.88355790    -0.25800
C2594       C  0.09111142  0.39000415  0.89659611     0.36600
C2595       C  0.05175318  0.39814560  0.92673696     0.06200
F2596       F  0.04635829  0.42219520  0.89785718    -0.19600
H2597       H  0.07119810  0.42392860  0.87411068     0.16000
F2598       F  0.10594258  0.37983173  0.89700967    -0.23300
H2599       H  0.08092218  0.37805926  0.92043845     0.17800
C2600       C  0.04338742  0.38230400  0.93204836     0.25800
C2601       C  0.03276406  0.38195808  0.94735612    -0.11900
C2602       C  0.03033484  0.39738729  0.95762185    -0.25900
C2603       C  0.03887536  0.41319106  0.95225205     0.36700
C2604       C  0.04939812  0.41349556  0.93699102    -0.27500
F2605       F  0.04519452  0.36729570  0.92223689    -0.19700
H2606       H  0.02626941  0.36966009  0.95105076     0.16000
F2607       F  0.03733749  0.42837195  0.96185031    -0.23400
H2608       H  0.05598997  0.42575003  0.93329446     0.17900
C2609       C  0.91032394  0.39497241  0.08838283    -0.27400
C2610       C  0.92708769  0.40307830  0.08898820     0.06200
C2611       C  0.93158880  0.41343276  0.10388169     0.25800
C2612       C  0.91939927  0.41591980  0.11764776    -0.11900
C2613       C  0.90257220  0.40799335  0.11696785    -0.25800
C2614       C  0.89815780  0.39734956  0.10223370     0.36600
C2615       C  0.93944677  0.40157710  0.07369333     0.06200
F2616       F  0.94784518  0.42106839  0.10517774    -0.19600
H2617       H  0.92316421  0.42401126  0.12892164     0.16000
F2618       F  0.88180985  0.38996086  0.10074369    -0.23300
H2619       H  0.90644377  0.38722262  0.07690899     0.17800
C2620       C  0.94381876  0.38501650  0.06622171     0.25800
C2621       C  0.95553576  0.38403709  0.05177073    -0.11900
C2622       C  0.96302863  0.39954065  0.04444866    -0.25900
C2623       C  0.95852251  0.41609392  0.05199538     0.36700
C2624       C  0.94685934  0.41701829  0.06636172    -0.27500
F2625       F  0.93705774  0.36977694  0.07311451    -0.19700
H2626       H  0.95872555  0.37112280  0.04631176     0.16000
F2627       F  0.96534792  0.43151134  0.04558336    -0.23400
H2628       H  0.94347158  0.42993721  0.07170441     0.17900
C2629       C  0.05766712  0.38566730  0.05895874    -0.27400
C2630       C  0.06861184  0.40077977  0.05896267     0.06200
C2631       C  0.06550269  0.41429759  0.04644621     0.25800
C2632       C  0.05124347  0.41306054  0.03474129    -0.11900
C2633       C  0.03999737  0.39818915  0.03499647    -0.25800
C2634       C  0.04348479  0.38431213  0.04704336     0.36600
C2635       C  0.08313520  0.40252118  0.07208609     0.06200
F2636       F  0.07641345  0.42860972  0.04534925    -0.19600
H2637       H  0.04905486  0.42376319  0.02536046     0.16000
F2638       F  0.03285925  0.36976835  0.04776259    -0.23300
H2639       H  0.05987928  0.37508352  0.06846392     0.17800
C2640       C  0.08492072  0.41808956  0.08224777     0.25800
C2641       C  0.09914569  0.42003692  0.09392311    -0.11900
C2642       C  0.11163488  0.40638229  0.09602220    -0.25900
C2643       C  0.10957159  0.39056828  0.08629420     0.36700
C2644       C  0.09543991  0.38870994  0.07438861    -0.27500
F2645       F  0.07271560  0.43129757  0.08114481    -0.19700
H2646       H  0.10023067  0.43216943  0.10156858     0.16000
F2647       F  0.12154659  0.37720199  0.08777141    -0.23400
H2648       H  0.09430235  0.37661982  0.06667935     0.17900
C2649       C  0.57482088  0.93257730  0.94421612    -0.27400
C2650       C  0.59028447  0.92292481  0.94048233     0.06200
C2651       C  0.60650841  0.92884110  0.94758450     0.25800
C2652       C  0.60707387  0.94396308  0.95842710    -0.11900
C2653       C  0.59150242  0.95346118  0.96242480    -0.25800
C2654       C  0.57533739  0.94760160  0.95506292     0.36600
C2655       C  0.58925538  0.90697799  0.92889587     0.06200
F2656       F  0.62172626  0.91973724  0.94446309    -0.19600
H2657       H  0.61969168  0.94805348  0.96393840     0.16000
F2658       F  0.55993387  0.95635089  0.95825628    -0.23300
H2659       H  0.56224040  0.92853611  0.93857815     0.17800
C2660       C  0.57621562  0.89389189  0.93174502     0.25800
C2661       C  0.57445850  0.87964605  0.91996287    -0.11900
C2662       C  0.58570322  0.87803227  0.90515296    -0.25900
C2663       C  0.59900172  0.89095812  0.90252633     0.36700
C2664       C  0.60070230  0.90523699  0.91429315    -0.27500
F2665       F  0.56521780  0.89481248  0.94600306    -0.19700
H2666       H  0.56426875  0.86982535  0.92249335     0.16000
F2667       F  0.60985239  0.89039717  0.88816349    -0.23400
H2668       H  0.61063187  0.91529846  0.91163447     0.17900
C2669       C  0.60809806  0.05506780  0.93920151    -0.27400
C2670       C  0.59184445  0.06184433  0.93317926     0.06200
C2671       C  0.57603695  0.05373767  0.93887555     0.25800
C2672       C  0.57650553  0.03960663  0.95093118    -0.11900
C2673       C  0.59272906  0.03318518  0.95755940    -0.25800
C2674       C  0.60860494  0.04091489  0.95129744     0.36600
C2675       C  0.59140371  0.07742254  0.92108851     0.06200
F2676       F  0.56011400  0.05941484  0.93267968    -0.19600
H2677       H  0.56406616  0.03384904  0.95525841     0.16000
F2678       F  0.62462819  0.03513449  0.95710352    -0.23300
H2679       H  0.62042789  0.06105064  0.93484935     0.17800
C2680       C  0.58137461  0.09254840  0.92541377     0.25800
C2681       C  0.58027053  0.10678991  0.91352453    -0.11900
C2682       C  0.58918561  0.10632197  0.89711105    -0.25900
C2683       C  0.59971997  0.09139664  0.89306519     0.36700
C2684       C  0.60082413  0.07714315  0.90500182    -0.27500
F2685       F  0.57272072  0.09359601  0.94120407    -0.19700
H2686       H  0.57232299  0.11819715  0.91716289     0.16000
F2687       F  0.60823230  0.09007783  0.87724415    -0.23400
H2688       H  0.60862389  0.06560416  0.90143669     0.17900
C2689       C  0.60581104  0.93740348  0.05817300    -0.27400
C2690       C  0.58943759  0.93313766  0.06601695     0.06200
C2691       C  0.57407499  0.94186615  0.05998979     0.25800
C2692       C  0.57511767  0.95452299  0.04646178    -0.11900
C2693       C  0.59145417  0.95882985  0.03855020    -0.25800
C2694       C  0.60686910  0.95010102  0.04457719     0.36600
C2695       C  0.58831414  0.91983537  0.08060416     0.06200
F2696       F  0.55791994  0.93789744  0.06690980    -0.19600
H2697       H  0.56300790  0.96092835  0.04214374     0.16000
F2698       F  0.62295642  0.95368086  0.03731264    -0.23300
H2699       H  0.61785773  0.93104112  0.06272385     0.17800
C2700       C  0.59646934  0.90306121  0.07924217     0.25800
C2701       C  0.59428702  0.89041331  0.09275707    -0.11900
C2702       C  0.58389123  0.89420276  0.10780353    -0.25900
C2703       C  0.57625113  0.91119887  0.10936640     0.36700
C2704       C  0.57853226  0.92381340  0.09596011    -0.27500
F2705       F  0.60596522  0.89862694  0.06457678    -0.19700
H2706       H  0.60032917  0.87746559  0.09118450     0.16000
F2707       F  0.56683191  0.91587606  0.12398864    -0.23400
H2708       H  0.57258783  0.93680390  0.09759855     0.17900
C2709       C  0.57683132  0.05666373  0.05409518    -0.27400
C2710       C  0.59264208  0.06560161  0.05813987     0.06200
C2711       C  0.60849237  0.06004592  0.05005388     0.25800
C2712       C  0.60840936  0.04584611  0.03802450    -0.11900
C2713       C  0.59254436  0.03689264  0.03388425    -0.25800
C2714       C  0.57670995  0.04246375  0.04216170     0.36600
C2715       C  0.59232124  0.08043448  0.07107923     0.06200
F2716       F  0.62396455  0.06859058  0.05348825    -0.19600
H2717       H  0.62077869  0.04195435  0.03184005     0.16000
F2718       F  0.56108359  0.03410068  0.03897760    -0.23300
H2719       H  0.56452287  0.06057884  0.06040378     0.17800
C2720       C  0.58059471  0.09473342  0.06874004     0.25800
C2721       C  0.57886827  0.10767828  0.08190936    -0.11900
C2722       C  0.58876455  0.10666603  0.09771079    -0.25900
C2723       C  0.60099677  0.09266842  0.09976119     0.36700
C2724       C  0.60275010  0.07971765  0.08650919    -0.27500
F2725       F  0.57069769  0.09610174  0.05373978    -0.19700
H2726       H  0.56961239  0.11845219  0.07975813     0.16000
F2727       F  0.61053366  0.09086165  0.11492683    -0.23400
H2728       H  0.61173428  0.06869618  0.08862519     0.17900
C2729       C  0.91179182  0.59729824  0.91662305    -0.27400
C2730       C  0.92731133  0.58700589  0.91664491     0.06200
C2731       C  0.93060043  0.57555779  0.90225767     0.25800
C2732       C  0.91828143  0.57401371  0.88847090    -0.11900
C2733       C  0.90252473  0.58395932  0.88863204    -0.25800
C2734       C  0.89949241  0.59583931  0.90276126     0.36600
C2735       C  0.93948745  0.58738442  0.93212781     0.06200
F2736       F  0.94575347  0.56585293  0.90154884    -0.19600
H2737       H  0.92104994  0.56494846  0.87765456     0.16000
F2738       F  0.88422402  0.60530547  0.90374871    -0.23300
H2739       H  0.90888865  0.60602235  0.92768438     0.17800
C2740       C  0.94642672  0.60342787  0.93870077     0.25800
C2741       C  0.95810586  0.60334159  0.95318138    -0.11900
C2742       C  0.96301216  0.58728256  0.96142504    -0.25900
C2743       C  0.95568281  0.57128397  0.95500759     0.36700
C2744       C  0.94411185  0.57141054  0.94053747    -0.27500
F2745       F  0.94231687  0.61911809  0.93081704    -0.19700
H2746       H  0.96347709  0.61585987  0.95779334     0.16000
F2747       F  0.95960714  0.55543274  0.96266660    -0.23400
H2748       H  0.93863241  0.55893516  0.93592039     0.17900
C2749       C  0.93875919  0.56963586  0.05931454    -0.27400
C2750       C  0.92902118  0.58514374  0.06267907     0.06200
C2751       C  0.93412165  0.60109013  0.05440701     0.25800
C2752       C  0.94854350  0.60137073  0.04271008    -0.11900
C2753       C  0.95812051  0.58576681  0.03903275    -0.25800
C2754       C  0.95316498  0.56987654  0.04764966     0.36600
C2755       C  0.91356312  0.58448012  0.07478924     0.06200
F2756       F  0.92481485  0.61626291  0.05719971    -0.19600
H2757       H  0.95200709  0.61377536  0.03627810     0.16000
F2758       F  0.96226539  0.55455751  0.04496619    -0.23300
H2759       H  0.93522000  0.55728437  0.06582237     0.17800
C2760       C  0.90004433  0.57190287  0.07217061     0.25800
C2761       C  0.88592790  0.57075479  0.08411847    -0.11900
C2762       C  0.88494953  0.58214525  0.09885741    -0.25900
C2763       C  0.89834374  0.59495110  0.10132039     0.36700
C2764       C  0.91250451  0.59606972  0.08935028    -0.27500
F2765       F  0.90040527  0.56082928  0.05794887    -0.19700
H2766       H  0.87570409  0.56092024  0.08180073     0.16000
F2767       F  0.89827882  0.60580643  0.11569752    -0.23400
H2768       H  0.92292565  0.60568939  0.09171387     0.17900
C2769       C  0.06098931  0.60184053  0.94654786    -0.27400
C2770       C  0.06754310  0.58547951  0.94045158     0.06200
C2771       C  0.06005541  0.56969877  0.94711017     0.25800
C2772       C  0.04646603  0.57032597  0.95970425    -0.11900
C2773       C  0.03991638  0.58666399  0.96594167    -0.25800
C2774       C  0.04730973  0.60249283  0.95913649     0.36600
C2775       C  0.08235172  0.58481976  0.92743189     0.06200
F2776       F  0.06563146  0.55361468  0.94117857    -0.19600
H2777       H  0.04102132  0.55790487  0.96452268     0.16000
F2778       F  0.04141413  0.61861819  0.96460219    -0.23300
H2779       H  0.06665397  0.61416618  0.94173480     0.17800
C2780       C  0.08194667  0.59485347  0.91164150     0.25800
C2781       C  0.09568168  0.59335780  0.89919151    -0.11900
C2782       C  0.10999468  0.58178122  0.90219173    -0.25900
C2783       C  0.11065305  0.57222726  0.91827462     0.36700
C2784       C  0.09698694  0.57378013  0.93070532    -0.27500
F2785       F  0.06794217  0.60553176  0.90789130    -0.19700
H2786       H  0.09478705  0.60082134  0.88692116     0.16000
F2787       F  0.12461151  0.56155629  0.92218446    -0.23400
H2788       H  0.09784317  0.56630261  0.94297986     0.17900
C2789       C  0.05362017  0.56798532  0.06434112    -0.27400
C2790       C  0.05733742  0.58338199  0.07410049     0.06200
C2791       C  0.04985908  0.59961807  0.06878954     0.25800
C2792       C  0.03861855  0.60031905  0.05402702    -0.11900
C2793       C  0.03467762  0.58484906  0.04431513    -0.25800
C2794       C  0.04244308  0.56863659  0.04959580     0.36600
C2795       C  0.06905674  0.58228674  0.08976770     0.06200
F2796       F  0.05302089  0.61467193  0.07818714    -0.19600
H2797       H  0.03278622  0.61294672  0.05037147     0.16000
F2798       F  0.03934945  0.55336251  0.04053988    -0.23300
H2799       H  0.05948514  0.55540069  0.06812717     0.17800
C2800       C  0.06534529  0.57023271  0.10353663     0.25800
C2801       C  0.07696921  0.56854919  0.11784192    -0.11900
C2802       C  0.09245976  0.57885966  0.11870593    -0.25900
C2803       C  0.09607836  0.59109303  0.10500401     0.36700
C2804       C  0.08440489  0.59278157  0.09068288    -0.27500
F2805       F  0.05040308  0.56017500  0.10319947    -0.19700
H2806       H  0.07382385  0.55915767  0.12829347     0.16000
F2807       F  0.11126198  0.60077176  0.10494099    -0.23400
H2808       H  0.08759074  0.60193493  0.08002856     0.17900
C2809       C  0.43735264  0.39208236  0.92362230    -0.27400
C2810       C  0.43305029  0.40692399  0.91318033     0.06200
C2811       C  0.41668688  0.40733106  0.90429442     0.25800
C2812       C  0.40478917  0.39319744  0.90603481    -0.11900
C2813       C  0.40892991  0.37842983  0.91671203    -0.25800
C2814       C  0.42544101  0.37796359  0.92543482     0.36600
C2815       C  0.44541829  0.42216360  0.91210581     0.06200
F2816       F  0.41192158  0.42169054  0.89447424    -0.19600
H2817       H  0.39212301  0.39405583  0.89933824     0.16000
F2818       F  0.43029313  0.36377280  0.93543495    -0.23300
H2819       H  0.45000910  0.39143488  0.93038947     0.17800
C2820       C  0.45165007  0.43030603  0.92767080     0.25800
C2821       C  0.46307559  0.44486151  0.92665857    -0.11900
C2822       C  0.46862669  0.45159091  0.91012063    -0.25900
C2823       C  0.46244900  0.44331176  0.89449207     0.36700
C2824       C  0.45091042  0.42877550  0.89554467    -0.27500
F2825       F  0.44634378  0.42444135  0.94388939    -0.19700
H2826       H  0.46754371  0.45089157  0.93892204     0.16000
F2827       F  0.46757577  0.44911498  0.87819580    -0.23400
H2828       H  0.44636079  0.42255438  0.88339980     0.17900
C2829       C  0.56788897  0.44131670  0.89209570    -0.27400
C2830       C  0.57328638  0.43338272  0.90807504     0.06200
C2831       C  0.56465800  0.43805135  0.92393934     0.25800
C2832       C  0.55074696  0.45030067  0.92374791    -0.11900
C2833       C  0.54519271  0.45826469  0.90776617    -0.25800
C2834       C  0.55405119  0.45372650  0.89189208     0.36600
C2835       C  0.58797064  0.42032879  0.90825152     0.06200
F2836       F  0.56943330  0.43045313  0.93958939    -0.19600
H2837       H  0.54423133  0.45344577  0.93618067     0.16000
F2838       F  0.54954750  0.46138148  0.87620004    -0.23300
H2839       H  0.57455563  0.43802280  0.87977953     0.17800
C2840       C  0.58692048  0.40449438  0.89841242     0.25800
C2841       C  0.60046343  0.39179588  0.89958784    -0.11900
C2842       C  0.61519832  0.39468553  0.91064118    -0.25900
C2843       C  0.61650466  0.41088660  0.91991092     0.36700
C2844       C  0.60296800  0.42349288  0.91877103    -0.27500
F2845       F  0.57242375  0.40097450  0.88833454    -0.19700
H2846       H  0.59909068  0.37942551  0.89238767     0.16000
F2847       F  0.63093692  0.41465415  0.92998741    -0.23400
H2848       H  0.60414051  0.43576013  0.92619583     0.17900
C2849       C  0.44487609  0.55188540  0.92714994    -0.27400
C2850       C  0.43461829  0.55539735  0.91199576     0.06200
C2851       C  0.43847593  0.54633282  0.89613695     0.25800
C2852       C  0.45224515  0.53386837  0.89558798    -0.11900
C2853       C  0.46240316  0.53017455  0.91082641    -0.25800
C2854       C  0.45858286  0.53942516  0.92665450     0.36600
C2855       C  0.42005631  0.56860930  0.91297393     0.06200
F2856       F  0.42866004  0.54919730  0.88130166    -0.19600
H2857       H  0.45483487  0.52696707  0.88323895     0.16000
F2858       F  0.46823509  0.53672096  0.94163134    -0.23300
H2859       H  0.44236245  0.55897014  0.93941830     0.17800
C2860       C  0.40747979  0.56775742  0.92674646     0.25800
C2861       C  0.39470727  0.58104689  0.92855542    -0.11900
C2862       C  0.39406169  0.59536645  0.91660074    -0.25900
C2863       C  0.40623147  0.59591528  0.90241465     0.36700
C2864       C  0.41913981  0.58265213  0.90068963    -0.27500
F2865       F  0.40752950  0.55403379  0.93846476    -0.19700
H2866       H  0.38530283  0.58014574  0.93940151     0.16000
F2867       F  0.40630681  0.60970265  0.89078438    -0.23400
H2868       H  0.42881050  0.58367067  0.89008896     0.17900
C2869       C  0.55262717  0.56111448  0.89374892    -0.27400
C2870       C  0.56196115  0.56508224  0.90937215     0.06200
C2871       C  0.55994193  0.55403944  0.92428587     0.25800
C2872       C  0.54845109  0.53953834  0.92370545    -0.11900
C2873       C  0.53874898  0.53570656  0.90824565    -0.25800
C2874       C  0.54105380  0.54658146  0.89314952     0.36600
C2875       C  0.57308147  0.58121229  0.91050858     0.06200
F2876       F  0.56914027  0.55727983  0.93944050    -0.19600
H2877       H  0.54711132  0.53132212  0.93545338     0.16000
F2878       F  0.53169330  0.54361392  0.87804326    -0.23300
H2879       H  0.55390062  0.56960307  0.88218344     0.17800
C2880       C  0.58686293  0.58437185  0.89835432     0.25800
C2881       C  0.59762588  0.59938762  0.90020312    -0.11900
C2882       C  0.59482590  0.61149645  0.91417259    -0.25900
C2883       C  0.58072779  0.60845875  0.92605851     0.36700
C2884       C  0.57001136  0.59346960  0.92418888    -0.27500
F2885       F  0.59032935  0.57263396  0.88511860    -0.19700
H2886       H  0.60845310  0.60123183  0.89093855     0.16000
F2887       F  0.57704087  0.62004670  0.93934348    -0.23400
H2888       H  0.55922252  0.59140594  0.93347894     0.17900
C2889       C  0.44477071  0.43521119  0.11354246    -0.27400
C2890       C  0.43668130  0.43033671  0.09746022     0.06200
C2891       C  0.43989543  0.44068341  0.08223026     0.25800
C2892       C  0.45185598  0.45483319  0.08282495    -0.11900
C2893       C  0.46075791  0.45918787  0.09864463    -0.25800
C2894       C  0.45669983  0.44951001  0.11419237     0.36600
C2895       C  0.42542437  0.41416580  0.09635118     0.06200
F2896       F  0.43152655  0.43703743  0.06668875    -0.19600
H2897       H  0.45438418  0.46220596  0.07071837     0.16000
F2898       F  0.46478119  0.45330147  0.12984063    -0.23300
H2899       H  0.44234017  0.42752848  0.12547739     0.17800
C2900       C  0.42865224  0.40132145  0.08318598     0.25800
C2901       C  0.41738045  0.38672708  0.08133305    -0.11900
C2902       C  0.40275029  0.38441899  0.09266890    -0.25900
C2903       C  0.39997391  0.39684345  0.10640642     0.36700
C2904       C  0.41124779  0.41156516  0.10818756    -0.27500
F2905       F  0.44282482  0.40281032  0.07215053    -0.19700
H2906       H  0.42014306  0.37719422  0.07093328     0.16000
F2907       F  0.38595116  0.39531357  0.11759905    -0.23400
H2908       H  0.40858449  0.42124172  0.11848914     0.17900
C2909       C  0.45133387  0.56041020  0.07828519    -0.27400
C2910       C  0.44578148  0.56870340  0.09400277     0.06200
C2911       C  0.45174180  0.56199974  0.11040223     0.25800
C2912       C  0.46289042  0.54713502  0.11096059    -0.11900
C2913       C  0.46832002  0.53868780  0.09519855    -0.25800
C2914       C  0.46250564  0.54564534  0.07879388     0.36600
C2915       C  0.43327470  0.58388105  0.09307211     0.06200
F2916       F  0.44700535  0.56997995  0.12585907    -0.19600
H2917       H  0.46727623  0.54225464  0.12376546     0.16000
F2918       F  0.46749113  0.53820882  0.06314877    -0.23300
H2919       H  0.44674713  0.56521148  0.06551848     0.17800
C2920       C  0.43646582  0.59830031  0.08160970     0.25800
C2921       C  0.42404514  0.61200164  0.08007930    -0.11900
C2922       C  0.40813521  0.61161018  0.08984406    -0.25900
C2923       C  0.40497960  0.59711018  0.10130931     0.36700
C2924       C  0.41748672  0.58349473  0.10292990    -0.27500
F2925       F  0.45167026  0.59921839  0.07198083    -0.19700
H2926       H  0.42697450  0.62297849  0.07125071     0.16000
F2927       F  0.38952140  0.59554607  0.11038584    -0.23400
H2928       H  0.41456100  0.57229872  0.11150284     0.17900
C2929       C  0.55096178  0.42807467  0.11174353    -0.27400
C2930       C  0.55830904  0.42255538  0.09551847     0.06200
C2931       C  0.55489724  0.43252057  0.08010241     0.25800
C2932       C  0.54393958  0.44740527  0.08083314    -0.11900
C2933       C  0.53623187  0.45280063  0.09695166    -0.25800
C2934       C  0.54004330  0.44309594  0.11252220     0.36600
C2935       C  0.56929342  0.40629795  0.09447534     0.06200
F2936       F  0.56235445  0.42797631  0.06432416    -0.19600
H2937       H  0.54149221  0.45472426  0.06868222     0.16000
F2938       F  0.53291194  0.44778911  0.12839920    -0.23300
H2939       H  0.55339427  0.42052818  0.12375931     0.17800
C2940       C  0.58408330  0.40390565  0.10557157     0.25800
C2941       C  0.59516229  0.38918012  0.10326196    -0.11900
C2942       C  0.59168460  0.37665173  0.08985896    -0.25900
C2943       C  0.57639680  0.37866050  0.07935081     0.36700
C2944       C  0.56535360  0.39333973  0.08167863    -0.27500
F2945       F  0.58830376  0.41621691  0.11803932    -0.19700
H2946       H  0.60683798  0.38796296  0.11153270     0.16000
F2947       F  0.57199663  0.36640090  0.06690500    -0.23400
H2948       H  0.55374999  0.39471125  0.07331125     0.17900
C2949       C  0.56796900  0.54789401  0.10630643    -0.27400
C2950       C  0.57281826  0.55435962  0.08947980     0.06200
C2951       C  0.56326167  0.54872043  0.07449950     0.25800
C2952       C  0.54917031  0.53682033  0.07634439    -0.11900
C2953       C  0.54425656  0.53023788  0.09315124    -0.25800
C2954       C  0.55387197  0.53590038  0.10818039     0.36600
C2955       C  0.58802235  0.56669813  0.08747109     0.06200
F2956       F  0.56734079  0.55499866  0.05807779    -0.19600
H2957       H  0.54202447  0.53284187  0.06452263     0.16000
F2958       F  0.54987761  0.52971520  0.12464889    -0.23300
H2959       H  0.57530881  0.55193442  0.11799051     0.17800
C2960       C  0.58888386  0.58262544  0.09716323     0.25800
C2961       C  0.60308139  0.59435253  0.09464946    -0.11900
C2962       C  0.61665627  0.59043831  0.08242883    -0.25900
C2963       C  0.61590443  0.57431496  0.07299767     0.36700
C2964       C  0.60171461  0.56262789  0.07551285    -0.27500
F2965       F  0.57571333  0.58712161  0.10860932    -0.19700
H2966       H  0.60321291  0.60670530  0.10200060     0.16000
F2967       F  0.62906075  0.56957214  0.06165831    -0.23400
H2968       H  0.60145632  0.55026718  0.06815890     0.17900
C2969       C  0.90177794  0.41379028  0.40471295    -0.27400
C2970       C  0.90979203  0.41173105  0.42143329     0.06200
C2971       C  0.91828436  0.39562800  0.42549900     0.25800
C2972       C  0.91925266  0.38212178  0.41283477    -0.11900
C2973       C  0.91164737  0.38429248  0.39593044    -0.25800
C2974       C  0.90269066  0.40023031  0.39202304     0.36600
C2975       C  0.90946779  0.42649561  0.43444239     0.06200
F2976       F  0.92548590  0.39287577  0.44179538    -0.19600
H2977       H  0.92597776  0.36989150  0.41629257     0.16000
F2978       F  0.89557481  0.40310815  0.37572152    -0.23300
H2979       H  0.89521390  0.42613116  0.40131454     0.17800
C2980       C  0.92524464  0.43285871  0.44208883     0.25800
C2981       C  0.92479945  0.44693816  0.45417517    -0.11900
C2982       C  0.90864642  0.45500145  0.45888218    -0.25900
C2983       C  0.89284520  0.44856740  0.45119692     0.36700
C2984       C  0.89333018  0.43451836  0.43905572    -0.27500
F2985       F  0.94116111  0.42581576  0.43747208    -0.19700
H2986       H  0.93718282  0.45160458  0.45976163     0.16000
F2987       F  0.87691695  0.45595398  0.45515775    -0.23400
H2988       H  0.88104044  0.42981294  0.43328704     0.17900
C2989       C  0.92941627  0.44343270  0.55451512    -0.27400
C2990       C  0.91401682  0.43553726  0.56142021     0.06200
C2991       C  0.89739514  0.44158853  0.55547548     0.25800
C2992       C  0.89631511  0.45493767  0.54254372    -0.11900
C2993       C  0.91175321  0.46254088  0.53526273    -0.25800
C2994       C  0.92837500  0.45674169  0.54159341     0.36600
C2995       C  0.91546444  0.42081887  0.57452787     0.06200
F2996       F  0.88219811  0.43413147  0.56165174    -0.19600
H2997       H  0.88333948  0.45904999  0.53796598     0.16000
F2998       F  0.94371156  0.46367948  0.53517084    -0.23300
H2999       H  0.94235488  0.43922082  0.55911459     0.17800
C3000       C  0.92671179  0.40627026  0.57131244     0.25800
C3001       C  0.92800741  0.39246928  0.58368516    -0.11900
C3002       C  0.91816091  0.39279820  0.59956352    -0.25900
C3003       C  0.90704248  0.40748828  0.60285827     0.36700
C3004       C  0.90571354  0.42128240  0.59042280    -0.27500
F3005       F  0.93613566  0.40514517  0.55597721    -0.19700
H3006       H  0.93655825  0.38134805  0.58061857     0.16000
F3007       F  0.89784180  0.40889750  0.61827853    -0.23400
H3008       H  0.89724858  0.43252143  0.59335681     0.17900
C3009       C  0.88894603  0.55040094  0.42963085    -0.27400
C3010       C  0.90451441  0.55445619  0.42027231     0.06200
C3011       C  0.92061926  0.54684554  0.42572003     0.25800
C3012       C  0.92110452  0.53541851  0.44034477    -0.11900
C3013       C  0.90554412  0.53129118  0.44981569    -0.25800
C3014       C  0.88936831  0.53882220  0.44418780     0.36600
C3015       C  0.90410492  0.56711320  0.40524024     0.06200
F3016       F  0.93598450  0.55090758  0.41721850    -0.19600
H3017       H  0.93374787  0.52986816  0.44429978     0.16000
F3018       F  0.87397955  0.53524607  0.45283848    -0.23300
H3019       H  0.87643184  0.55619922  0.42560986     0.17800
C3020       C  0.91062615  0.56219558  0.38847339     0.25800
C3021       C  0.91186471  0.57476172  0.37486509    -0.11900
C3022       C  0.90647550  0.59239967  0.37765770    -0.25900
C3023       C  0.89925012  0.59713813  0.39425916     0.36700
C3024       C  0.89807269  0.58453975  0.40789767    -0.27500
F3025       F  0.91587295  0.54524544  0.38530216    -0.19700
H3026       H  0.91717210  0.57070468  0.36212678     0.16000
F3027       F  0.89427711  0.61411040  0.39770174    -0.23400
H3028       H  0.89306900  0.58855620  0.42077881     0.17900
C3029       C  0.92366037  0.56500319  0.54229381    -0.27400
C3030       C  0.90868087  0.56863406  0.55278458     0.06200
C3031       C  0.89308247  0.55880176  0.54983629     0.25800
C3032       C  0.89285413  0.54511173  0.53720853    -0.11900
C3033       C  0.90813647  0.54094121  0.52729250    -0.25800
C3034       C  0.92347179  0.55134650  0.52973736     0.36600
C3035       C  0.90985729  0.58229666  0.56703236     0.06200
F3036       F  0.87830425  0.56188088  0.55965966    -0.19600
H3037       H  0.88081627  0.53743892  0.53555967     0.16000
F3038       F  0.93836385  0.54837274  0.52005152    -0.23300
H3039       H  0.93567477  0.57271899  0.54394300     0.17800
C3040       C  0.92431717  0.58226458  0.57884284     0.25800
C3041       C  0.92636275  0.59586469  0.59127112    -0.11900
C3042       C  0.91386806  0.60960582  0.59254373    -0.25900
C3043       C  0.89895405  0.60929657  0.58130211     0.36700
C3044       C  0.89705904  0.59580114  0.56857391    -0.27500
F3045       F  0.93644011  0.56894558  0.57848124    -0.19700
H3046       H  0.93772705  0.59555769  0.60005335     0.16000
F3047       F  0.88665688  0.62243126  0.58204894    -0.23400
H3048       H  0.88585547  0.59618520  0.55959166     0.17900
C3049       C  0.42552558  0.89025677  0.45497172    -0.27400
C3050       C  0.41916344  0.90625212  0.44778108     0.06200
C3051       C  0.42789386  0.92219754  0.45214551     0.25800
C3052       C  0.44280654  0.92201756  0.46320004    -0.11900
C3053       C  0.44941714  0.90597500  0.47015272    -0.25800
C3054       C  0.44045911  0.89005302  0.46601895     0.36600
C3055       C  0.40357712  0.90624977  0.43564927     0.06200
F3056       F  0.42236298  0.93793157  0.44527764    -0.19600
H3057       H  0.44934167  0.93449676  0.46609826     0.16000
F3058       F  0.44601408  0.87424439  0.47266687    -0.23300
H3059       H  0.41884136  0.87785208  0.45209397     0.17800
C3060       C  0.40265382  0.89456683  0.42106861     0.25800
C3061       C  0.38831478  0.89535410  0.40925993    -0.11900
C3062       C  0.37466169  0.90782547  0.41169577    -0.25900
C3063       C  0.37528002  0.91902243  0.42666596     0.36700
C3064       C  0.38958901  0.91822682  0.43844425    -0.27500
F3065       F  0.41597117  0.88289559  0.41779192    -0.19700
H3066       H  0.38823284  0.88659446  0.39786166     0.16000
F3067       F  0.36193826  0.93059705  0.43013146    -0.23400
H3068       H  0.38972975  0.92700871  0.44983214     0.17900
C3069       C  0.57390197  0.89510571  0.40943159    -0.27400
C3070       C  0.56116634  0.90853833  0.41155228     0.06200
C3071       C  0.56094851  0.92277187  0.39949058     0.25800
C3072       C  0.57335779  0.92363174  0.38575283    -0.11900
C3073       C  0.58643914  0.91044054  0.38374089    -0.25800
C3074       C  0.58648308  0.89602262  0.39574796     0.36600
C3075       C  0.54877884  0.90818986  0.42686775     0.06200
F3076       F  0.54862933  0.93583993  0.40091022    -0.19600
H3077       H  0.57260021  0.93474739  0.37667490     0.16000
F3078       F  0.59898145  0.88312153  0.39482005    -0.23300
H3079       H  0.57446128  0.88414518  0.41875352     0.17800
C3080       C  0.53849648  0.89307633  0.43071394     0.25800
C3081       C  0.52737378  0.89285938  0.44561980    -0.11900
C3082       C  0.52615105  0.90776084  0.45682556    -0.25900
C3083       C  0.53624059  0.92297205  0.45274782     0.36700
C3084       C  0.54747447  0.92309075  0.43799019    -0.27500
F3085       F  0.53895886  0.87867056  0.41988774    -0.19700
H3086       H  0.51960367  0.88105299  0.44832212     0.16000
F3087       F  0.53569708  0.93758339  0.46328544    -0.23400
H3088       H  0.55544048  0.93479303  0.43540532     0.17900
C3089       C  0.44631087  0.88839013  0.56868168    -0.27400
C3090       C  0.43991851  0.90427692  0.57595097     0.06200
C3091       C  0.44508578  0.92053793  0.56834557     0.25800
C3092       C  0.45637534  0.92082444  0.55362388    -0.11900
C3093       C  0.46276856  0.90492116  0.54621066    -0.25800
C3094       C  0.45767403  0.88863831  0.55400460     0.36600
C3095       C  0.42786029  0.90388916  0.59144554     0.06200
F3096       F  0.43883526  0.93613638  0.57487293    -0.19600
H3097       H  0.45997750  0.93355026  0.54793896     0.16000
F3098       F  0.46359178  0.87291134  0.54750236    -0.23300
H3099       H  0.44258216  0.87575203  0.57448756     0.17800
C3100       C  0.41183019  0.89436587  0.59089702     0.25800
C3101       C  0.39993333  0.89530421  0.60514106    -0.11900
C3102       C  0.40387857  0.90568009  0.62015205    -0.25900
C3103       C  0.42044271  0.91426169  0.62109416     0.36700
C3104       C  0.43220972  0.91348004  0.60679010    -0.27500
F3105       F  0.40730749  0.88486872  0.57625836    -0.19700
H3106       H  0.38733465  0.88849052  0.60408500     0.16000
F3107       F  0.42536490  0.92331872  0.63586672    -0.23400
H3108       H  0.44474308  0.92046669  0.60763772     0.17900
C3109       C  0.55934077  0.92296103  0.55337228    -0.27400
C3110       C  0.57019589  0.90786728  0.55479387     0.06200
C3111       C  0.56536605  0.89239107  0.54550764     0.25800
C3112       C  0.55005935  0.89214045  0.53496961    -0.11900
C3113       C  0.53930355  0.90732251  0.53335219    -0.25800
C3114       C  0.54412123  0.92277672  0.54276335     0.36600
C3115       C  0.58632023  0.90838626  0.56617439     0.06200
F3116       F  0.57568865  0.87764500  0.54623908    -0.19600
H3117       H  0.54676706  0.88008621  0.52785327     0.16000
F3118       F  0.53401062  0.93767183  0.54201064    -0.23300
H3119       H  0.56255462  0.93492489  0.56068305     0.17800
C3120       C  0.59839984  0.92257411  0.56494656     0.25800
C3121       C  0.61286996  0.92357991  0.57649369    -0.11900
C3122       C  0.61565485  0.91055811  0.58962216    -0.25900
C3123       C  0.60387908  0.89601011  0.59044056     0.36700
C3124       C  0.58938825  0.89501431  0.57884236    -0.27500
F3125       F  0.59624609  0.93550137  0.55254471    -0.19700
H3126       H  0.62183500  0.93473732  0.57519621     0.16000
F3127       F  0.60572775  0.88314748  0.60292652    -0.23400
H3128       H  0.58018181  0.88404665  0.58018322     0.17900
C3129       C  0.10548028  0.44132490  0.43816643    -0.27400
C3130       C  0.08908414  0.43389768  0.43339185     0.06200
C3131       C  0.07386624  0.43862587  0.44309353     0.25800
C3132       C  0.07505490  0.45085623  0.45700800    -0.11900
C3133       C  0.09143357  0.45852020  0.46167822    -0.25800
C3134       C  0.10671133  0.45348897  0.45214732     0.36600
C3135       C  0.08809931  0.42106052  0.41847808     0.06200
F3136       F  0.05791765  0.43110362  0.43942799    -0.19600
H3137       H  0.06308677  0.45424476  0.46420599     0.16000
F3138       F  0.12283262  0.46043434  0.45611896    -0.23300
H3139       H  0.11737081  0.43783562  0.43088424     0.17800
C3140       C  0.07580694  0.42327363  0.40463102     0.25800
C3141       C  0.07505154  0.41099383  0.39073244    -0.11900
C3142       C  0.08647096  0.39620015  0.39029720    -0.25900
C3143       C  0.09897485  0.39420027  0.40408273     0.36700
C3144       C  0.09975183  0.40654543  0.41793884    -0.27500
F3145       F  0.06476457  0.43750954  0.40431365    -0.19700
H3146       H  0.06550309  0.41320270  0.38024002     0.16000
F3147       F  0.11011331  0.38008969  0.40465051    -0.23400
H3148       H  0.10929859  0.40457251  0.42850444     0.17900
C3149       C  0.10683413  0.55595817  0.44430586    -0.27400
C3150       C  0.09037845  0.56210026  0.43818302     0.06200
C3151       C  0.07477707  0.55556057  0.44605161     0.25800
C3152       C  0.07563209  0.54260963  0.45930423    -0.11900
C3153       C  0.09205209  0.53593278  0.46507868    -0.25800
C3154       C  0.10772989  0.54301672  0.45764806     0.36600
C3155       C  0.08934509  0.57467994  0.42307860     0.06200
F3156       F  0.05866470  0.56174462  0.44091941    -0.19600
H3157       H  0.06334728  0.53767570  0.46490844     0.16000
F3158       F  0.12393241  0.53727527  0.46297973    -0.23300
H3159       H  0.11900350  0.56084165  0.43840489     0.17800
C3160       C  0.09851893  0.59094722  0.42323049     0.25800
C3161       C  0.09629055  0.60308587  0.40928976    -0.11900
C3162       C  0.08487356  0.59920297  0.39504857    -0.25900
C3163       C  0.07642516  0.58253056  0.39454240     0.36700
C3164       C  0.07865802  0.57046175  0.40843380    -0.27500
F3165       F  0.10896314  0.59543868  0.43720264    -0.19700
H3166       H  0.10298299  0.61579630  0.40998247     0.16000
F3167       F  0.06612685  0.57774600  0.38056679    -0.23400
H3168       H  0.07189655  0.55777281  0.40782554     0.17900
C3169       C  0.08392929  0.42097029  0.59670059    -0.27400
C3170       C  0.09296889  0.41614039  0.58114115     0.06200
C3171       C  0.10075100  0.39921551  0.58000690     0.25800
C3172       C  0.09898288  0.38716932  0.59409964    -0.11900
C3173       C  0.08933967  0.39181730  0.60939088    -0.25800
C3174       C  0.08207514  0.40894918  0.61069443     0.36600
C3175       C  0.09350280  0.42873053  0.56605593     0.06200
F3176       F  0.10933602  0.39407911  0.56501184    -0.19600
H3177       H  0.10459252  0.37399098  0.59279802     0.16000
F3178       F  0.07332032  0.41414669  0.62556735    -0.23300
H3179       H  0.07812880  0.43407874  0.59791982     0.17800
C3180       C  0.07763715  0.43558032  0.55913833     0.25800
C3181       C  0.07800274  0.44855228  0.54590686    -0.11900
C3182       C  0.09419051  0.45504655  0.53927527    -0.25900
C3183       C  0.11014031  0.44775226  0.54585617     0.36700
C3184       C  0.10972887  0.43466751  0.55911418    -0.27500
F3185       F  0.06172991  0.42971601  0.56524011    -0.19700
H3186       H  0.06550721  0.45367868  0.54102467     0.16000
F3187       F  0.12612641  0.45342685  0.53979368    -0.23400
H3188       H  0.12208983  0.42952697  0.56433182     0.17900
C3189       C  0.07767590  0.55231796  0.56269930    -0.27400
C3190       C  0.09355845  0.55717174  0.57101812     0.06200
C3191       C  0.10962115  0.55008801  0.56478096     0.25800
C3192       C  0.10966732  0.53796226  0.55066776    -0.11900
C3193       C  0.09370940  0.53282473  0.54244771    -0.25800
C3194       C  0.07768905  0.54043947  0.54845664     0.36600
C3195       C  0.09308078  0.56963494  0.58618510     0.06200
F3196       F  0.12518655  0.55454572  0.57264407    -0.19600
H3197       H  0.12219341  0.53243598  0.54632571     0.16000
F3198       F  0.06197750  0.53653675  0.54058113    -0.23300
H3199       H  0.06520920  0.55788244  0.56719282     0.17800
C3200       C  0.10122823  0.58636964  0.58504047     0.25800
C3201       C  0.09950018  0.59855808  0.59895622    -0.11900
C3202       C  0.08956886  0.59428497  0.61419904    -0.25900
C3203       C  0.08196465  0.57725741  0.61557436     0.36700
C3204       C  0.08362015  0.56512073  0.60160646    -0.27500
F3205       F  0.11014939  0.59121137  0.57013051    -0.19700
H3206       H  0.10540321  0.61159452  0.59749991     0.16000
F3207       F  0.07310452  0.57225904  0.63046602    -0.23400
H3208       H  0.07742610  0.55217920  0.60275995     0.17900
C3209       C  0.42007555  0.09851457  0.40380328    -0.27400
C3210       C  0.42445865  0.08500922  0.41588058     0.06200
C3211       C  0.41539492  0.06869597  0.41495128     0.25800
C3212       C  0.40270693  0.06577840  0.40176991    -0.11900
C3213       C  0.39858550  0.07909757  0.38934906    -0.25800
C3214       C  0.40730174  0.09563181  0.39062122     0.36600
C3215       C  0.43869933  0.08774446  0.42918416     0.06200
F3216       F  0.41864739  0.05562100  0.42695755    -0.19600
H3217       H  0.39599657  0.05306694  0.40141146     0.16000
F3218       F  0.40409519  0.10880258  0.37874580    -0.23300
H3219       H  0.42691390  0.11116473  0.40427971     0.17800
C3220       C  0.45231976  0.07514972  0.43101444     0.25800
C3221       C  0.46478251  0.07679891  0.44456352    -0.11900
C3222       C  0.46421393  0.09120473  0.45637761    -0.25900
C3223       C  0.45128008  0.10446396  0.45390076     0.36700
C3224       C  0.43857653  0.10266652  0.44041423    -0.27500
F3225       F  0.45359173  0.06119744  0.41967347    -0.19700
H3226       H  0.47487430  0.06665000  0.44589454     0.16000
F3227       F  0.45036557  0.11865770  0.46497387    -0.23400
H3228       H  0.42829591  0.11262331  0.43910272     0.17900
C3229       C  0.41729111  0.06987108  0.58590059    -0.27400
C3230       C  0.41670721  0.08442767  0.57423622     0.06200
C3231       C  0.40283591  0.09682089  0.57589882     0.25800
C3232       C  0.38985506  0.09459976  0.58902835    -0.11900
C3233       C  0.39027874  0.07982140  0.60041932    -0.25800
C3234       C  0.40421628  0.06751738  0.59882138     0.36600
C3235       C  0.43034945  0.08610395  0.56012687     0.06200
F3236       F  0.40140762  0.11064232  0.56439367    -0.19600
H3237       H  0.37915423  0.10414636  0.58994553     0.16000
F3238       F  0.40547700  0.05341897  0.61000555    -0.23300
H3239       H  0.42795917  0.06027919  0.58500845     0.17800
C3240       C  0.43974595  0.10203612  0.55746475     0.25800
C3241       C  0.45299719  0.10302924  0.54448686    -0.11900
C3242       C  0.45726251  0.08814255  0.53405625    -0.25900
C3243       C  0.44769009  0.07226609  0.53662167     0.36700
C3244       C  0.43441213  0.07132527  0.54951889    -0.27500
F3245       F  0.43664465  0.11642432  0.56786188    -0.19700
H3246       H  0.46023262  0.11536575  0.54291924     0.16000
F3247       F  0.45104798  0.05762332  0.52665922    -0.23400
H3248       H  0.42724132  0.05896545  0.55123520     0.17900
C3249       C  0.56047906  0.10800553  0.44309315    -0.27400
C3250       C  0.56754039  0.09180249  0.43719080     0.06200
C3251       C  0.56124196  0.07586667  0.44461160     0.25800
C3252       C  0.54797956  0.07615208  0.45749531    -0.11900
C3253       C  0.54058735  0.09229335  0.46324088    -0.25800
C3254       C  0.54711419  0.10831470  0.45601233     0.36600
C3255       C  0.58105968  0.09130357  0.42294663     0.06200
F3256       F  0.56741618  0.05992321  0.43889241    -0.19600
H3257       H  0.54327323  0.06359779  0.46273198     0.16000
F3258       F  0.54044806  0.12425014  0.46113812    -0.23300
H3259       H  0.56527504  0.12042928  0.43762168     0.17800
C3260       C  0.57810984  0.09971704  0.40651342     0.25800
C3261       C  0.59000282  0.09721557  0.39245246    -0.11900
C3262       C  0.60485713  0.08616307  0.39453729    -0.25900
C3263       C  0.60823204  0.07851824  0.41126747     0.36700
C3264       C  0.59646345  0.08115100  0.42530674    -0.27500
F3265       F  0.56322548  0.10945713  0.40372924    -0.19700
H3266       H  0.58715504  0.10325873  0.37970718     0.16000
F3267       F  0.62290136  0.06848596  0.41412160    -0.23400
H3268       H  0.59917225  0.07489540  0.43798839     0.17900
C3269       C  0.55563942  0.10186180  0.56013671    -0.27400
C3270       C  0.55621441  0.08638401  0.57055376     0.06200
C3271       C  0.54471903  0.07223943  0.56646372     0.25800
C3272       C  0.53345328  0.07334169  0.55179939    -0.11900
C3273       C  0.53307131  0.08870431  0.54118805    -0.25800
C3274       C  0.54414382  0.10308452  0.54561884     0.36600
C3275       C  0.56911201  0.08493001  0.58533683     0.06200
F3276       F  0.54412074  0.05747713  0.57683309    -0.19600
H3277       H  0.52481020  0.06221878  0.54889438     0.16000
F3278       F  0.54426610  0.11811939  0.53565137    -0.23300
H3279       H  0.56439153  0.11289856  0.56302974     0.17800
C3280       C  0.58006887  0.06990756  0.58687847     0.25800
C3281       C  0.59207380  0.06852467  0.60088110    -0.11900
C3282       C  0.59367777  0.08217505  0.61348180    -0.25900
C3283       C  0.58306608  0.09744047  0.61172557     0.36700
C3284       C  0.57084770  0.09873873  0.59778112    -0.27500
F3285       F  0.57955542  0.05675521  0.57456063    -0.19700
H3286       H  0.60037389  0.05681944  0.60166451     0.16000
F3287       F  0.58405647  0.11082273  0.62374919    -0.23400
H3288       H  0.56255573  0.11044474  0.59682384     0.17900
loop_ 
_geom_bond_atom_site_label_1 
_geom_bond_atom_site_label_2 
_geom_bond_distance 
_geom_bond_site_symmetry_2 
_ccdc_geom_bond_type 
O1           Cu9   2.014       .  S
O1           C11   1.279       .  A
O2           Cu9   2.021       .  S
O2           C12   1.279       .  A
O3           Cu9   2.011       .  S
O3           C13   1.279       .  A
O4           Cu9   2.013       .  S
O4           C14   1.278       .  A
O5          Cu10   1.996       .  S
O5           C14   1.278       .  A
O6          Cu10   1.999       .  S
O6           C13   1.277       .  A
O7          Cu10   1.994       .  S
O7           C12   1.277       .  A
O8          Cu10   1.997       .  S
O8           C11   1.277       .  A
Cu9         Cu10   2.370       .  S
C11        C3273   1.478       .  S
C12        C3222   1.478       .  S
C13        C3242   1.481       .  S
C14        C3253   1.482       .  S
O15         Cu23   2.000       .  S
O15          C25   1.277       .  A
O16         Cu23   1.999       .  S
O16          C26   1.277       .  A
O17         Cu23   2.006       .  S
O17          C27   1.279       .  A
O18         Cu23   2.006       .  S
O18          C28   1.279       .  A
O19         Cu24   2.011       .  S
O19          C28   1.278       .  A
O20         Cu24   2.008       .  S
O20          C27   1.277       .  A
O21         Cu24   2.023       .  S
O21          C26   1.280       .  A
O22         Cu24   2.021       .  S
O22          C25   1.280       .  A
Cu23        Cu24   2.367       .  S
C25        C3133   1.485       .  S
C26        C3193   1.486       .  S
C27        C3153   1.484       .  S
C28        C3182   1.485       .  S
O29         Cu37   2.005       .  S
O29          C39   1.277       .  A
O30         Cu37   2.009       .  S
O30          C40   1.278       .  A
O31         Cu37   2.022       .  S
O31          C41   1.280       .  A
O32         Cu37   2.017       .  S
O32          C42   1.279       .  A
O33         Cu38   2.013       .  S
O33          C42   1.279       .  A
O34         Cu38   2.011       .  S
O34          C41   1.278       .  A
O35         Cu38   2.010       .  S
O35          C40   1.279       .  A
O36         Cu38   2.007       .  S
O36          C39   1.278       .  A
Cu37        Cu38   2.368       .  S
C39        C3093   1.483       .  S
C40        C3082   1.482       .  S
C41        C3113   1.488       .  S
C42        C3053   1.489       .  S
O43         Cu51   2.013       .  S
O43          C53   1.279       .  A
O44         Cu51   2.010       .  S
O44          C54   1.279       .  A
O45         Cu51   2.004       .  S
O45          C55   1.278       .  A
O46         Cu51   2.006       .  S
O46          C56   1.278       .  A
O47         Cu52   2.017       .  S
O47          C56   1.279       .  A
O48         Cu52   2.014       .  S
O48          C55   1.279       .  A
O49         Cu52   2.011       .  S
O49          C54   1.278       .  A
O50         Cu52   2.016       .  S
O50          C53   1.279       .  A
Cu51        Cu52   2.367       .  S
C53        C3033   1.488       .  S
C54        C2982   1.485       .  S
C55        C3013   1.484       .  S
C56        C2993   1.487       .  S
O57         Cu65   2.025       .  S
O57          C67   1.280       .  A
O58         Cu65   2.022       .  S
O58          C68   1.280       .  A
O59         Cu65   2.019       .  S
O59          C69   1.280       .  A
O60         Cu65   2.013       .  S
O60          C70   1.278       .  A
O61         Cu66   1.998       .  S
O61          C70   1.277       .  A
O62         Cu66   1.997       .  S
O62          C69   1.277       .  A
O63         Cu66   1.999       .  S
O63          C68   1.277       .  A
O64         Cu66   2.003       .  S
O64          C67   1.278       .  A
Cu65        Cu66   2.368       .  S
C67        C2893   1.487       .  S
C68        C2953   1.486       .  S
C69        C2913   1.485       .  S
C70        C2933   1.481       .  S
O71         Cu79   2.006       .  S
O71          C81   1.278       .  A
O72         Cu79   2.003       .  S
O72          C82   1.278       .  A
O73         Cu79   2.001       .  S
O73          C83   1.278       .  A
O74         Cu79   2.003       .  S
O74          C84   1.278       .  A
O75         Cu80   2.012       .  S
O75          C84   1.278       .  A
O76         Cu80   2.010       .  S
O76          C83   1.278       .  A
O77         Cu80   2.020       .  S
O77          C82   1.279       .  A
O78         Cu80   2.018       .  S
O78          C81   1.279       .  A
Cu79        Cu80   2.368       .  S
C81        C2853   1.485       .  S
C82        C2833   1.487       .  S
C83        C2873   1.480       .  S
C84        C2822   1.484       .  S
O85         Cu93   1.997   1_455  S
O85          C95   1.276       .  A
O86         Cu93   2.000   1_556  S
O86          C96   1.277       .  A
O87         Cu93   2.004   1_456  S
O87          C97   1.278       .  A
O88         Cu93   2.002       .  S
O88          C98   1.277       .  A
O89         Cu94   2.014       .  S
O89          C98   1.279       .  A
O90         Cu94   2.018   1_456  S
O90          C97   1.279       .  A
O91         Cu94   2.020   1_556  S
O91          C96   1.280       .  A
O92         Cu94   2.018   1_455  S
O92          C95   1.279       .  A
Cu93        Cu94   2.368       .  S
C95        C2793   1.483       .  S
C96        C2742   1.487       .  S
C97        C2773   1.487       .  S
C98        C2753   1.483       .  S
O99        Cu107   2.017   1_554  S
O99         C109   1.279       .  A
O100       Cu107   2.018   1_545  S
O100        C110   1.279       .  A
O101       Cu107   2.021   1_544  S
O101        C111   1.280       .  A
O102       Cu107   2.021       .  S
O102        C112   1.280       .  A
O103       Cu108   2.003       .  S
O103        C112   1.277       .  A
O104       Cu108   2.004   1_544  S
O104        C111   1.277       .  A
O105       Cu108   2.008   1_545  S
O105        C110   1.278       .  A
O106       Cu108   2.005   1_554  S
O106        C109   1.278       .  A
Cu107      Cu108   2.367       .  S
C109       C2693   1.486       .  S
C110       C2673   1.488       .  S
C111       C2713   1.487       .  S
C112       C2653   1.487       .  S
O113       Cu121   1.994   1_456  S
O113        C123   1.276       .  A
O114       Cu121   1.997       .  S
O114        C124   1.276       .  A
O115       Cu121   1.991   1_455  S
O115        C125   1.276       .  A
O116       Cu121   1.988   1_556  S
O116        C126   1.277       .  A
O117       Cu122   2.012   1_556  S
O117        C126   1.278       .  A
O118       Cu122   2.016   1_455  S
O118        C125   1.279       .  A
O119       Cu122   2.029       .  S
O119        C124   1.281       .  A
O120       Cu122   2.031   1_456  S
O120        C123   1.281       .  A
Cu121      Cu122   2.369       .  S
C123       C2602   1.486       .  S
C124       C2622   1.488       .  S
C125       C2633   1.476       .  S
C126       C2573   1.480       .  S
O127       Cu135   2.012   1_545  S
O127        C137   1.279       .  A
O128       Cu135   2.018   1_554  S
O128        C138   1.279       .  A
O129       Cu135   2.023   1_544  S
O129        C139   1.280       .  A
O130       Cu135   2.016       .  S
O130        C140   1.279       .  A
O131       Cu136   2.006   1_556  S
O131        C140   1.278       .  A
O132       Cu136   2.005   1_545  S
O132        C139   1.278       .  A
O133       Cu136   2.011       .  S
O133        C138   1.279       .  A
O134       Cu136   2.011   1_546  S
O134        C137   1.278       .  A
Cu135      Cu136   2.367   1_556  S
C137       C2533   1.484       .  S
C138       C2513   1.489       .  S
C139       C2553   1.489       .  S
C140       C2493   1.486       .  S
O141       Cu149   2.012       .  S
O141        C151   1.279       .  A
O142       Cu149   2.009   1_645  S
O142        C152   1.278       .  A
O143       Cu149   2.002   1_545  S
O143        C153   1.277       .  A
O144       Cu149   1.997   1_655  S
O144        C154   1.277       .  A
O145       Cu150   2.010   1_655  S
O145        C154   1.278       .  A
O146       Cu150   2.003   1_545  S
O146        C153   1.277       .  A
O147       Cu150   2.020   1_645  S
O147        C152   1.280       .  A
O148       Cu150   2.018       .  S
O148        C151   1.279       .  A
Cu149      Cu150   2.368       .  S
C151       C2453   1.489       .  S
C152       C2433   1.488       .  S
C153       C2473   1.476       .  S
C154       C2413   1.482       .  S
O155       Cu163   2.021   1_655  S
O155        C165   1.279       .  A
O156       Cu163   2.020   1_545  S
O156        C166   1.280       .  A
O157       Cu163   2.026       .  S
O157        C167   1.280       .  A
O158       Cu163   2.023   1_645  S
O158        C168   1.280       .  A
O159       Cu164   2.008   1_645  S
O159        C168   1.278       .  A
O160       Cu164   2.008       .  S
O160        C167   1.278       .  A
O161       Cu164   1.995   1_545  S
O161        C166   1.277       .  A
O162       Cu164   1.997   1_655  S
O162        C165   1.277       .  A
Cu163      Cu164   2.367       .  S
C165       C2333   1.483       .  S
C166       C2393   1.484       .  S
C167       C2353   1.490       .  S
C168       C2373   1.490       .  S
N169        N170   1.316       .  A
N169        C173   1.347       .  A
N169       Cu177   2.067       .  S
N170        C171   1.342       .  A
N170       Cu176   2.062       .  S
C171        C172   1.389       .  A
C171        H174   1.081       .  S
C172       C3122   1.490       .  S
C172        C173   1.392       .  A
C173        H175   1.081       .  S
Cu176       N179   2.062       .  S
Cu177       N187   2.069       .  S
Cu178       N180   2.128       .  S
Cu178       N186   2.131       .  S
N179        N180   1.324       .  A
N179        C183   1.337       .  A
N180        C181   1.360       .  A
C181        C182   1.397       .  A
C181        H184   1.082       .  S
C182        C206   1.484   1_565  S
C182        C183   1.378       .  A
C183        H185   1.082       .  S
N186        N187   1.326       .  A
N186        C190   1.357       .  A
N187        C188   1.340       .  A
C188        C189   1.380       .  A
C188        H191   1.081       .  S
C189       C2322   1.495       .  S
C189        C190   1.398       .  A
C190        H192   1.082       .  S
N193        N194   1.317       .  A
N193        C197   1.348       .  A
N193       Cu201   2.068       .  S
N194        C195   1.340       .  A
N194       Cu200   2.056       .  S
C195        C196   1.384       .  A
C195        H198   1.082       .  S
C196       C3282   1.479       .  S
C196        C197   1.389       .  A
C197        H199   1.082       .  S
Cu200       N203   2.056       .  S
Cu201       N211   2.071       .  S
Cu202       N204   2.120       .  S
Cu202       N210   2.123       .  S
N203        N204   1.322       .  A
N203        C207   1.337       .  A
N204        C205   1.359       .  A
C205        C206   1.396       .  A
C205        H208   1.082       .  S
C206        C207   1.379       .  A
C207        H209   1.082       .  S
N210        N211   1.327       .  A
N210        C214   1.354       .  A
N211        C212   1.341       .  A
C212        C213   1.380       .  A
C212        H215   1.082       .  S
C213       C2293   1.488       .  S
C213        C214   1.393       .  A
C214        H216   1.082       .  S
N217        N218   1.317       .  A
N217        C221   1.348       .  A
N217       Cu225   2.068       .  S
N218        C219   1.344       .  A
N218       Cu224   2.065       .  S
C219        C220   1.387       .  A
C219        H222   1.082       .  S
C220       C3042   1.483       .  S
C220        C221   1.388       .  A
C221        H223   1.082       .  S
Cu224       N227   2.064       .  S
Cu225       N235   2.069       .  S
Cu226       N228   2.114       .  S
Cu226       N234   2.115       .  S
N227        N228   1.324       .  A
N227        C231   1.337       .  A
N228        C229   1.357       .  A
C229        C230   1.393       .  A
C229        H232   1.082       .  S
C230        C254   1.478   1_655  S
C230        C231   1.376       .  A
C231        H233   1.082       .  S
N234        N235   1.325       .  A
N234        C238   1.354       .  A
N235        C236   1.340       .  A
C236        C237   1.380       .  A
C236        H239   1.081       .  S
C237       C2273   1.488       .  S
C237        C238   1.394       .  A
C238        H240   1.082       .  S
N241        N242   1.318       .  A
N241        C245   1.344       .  A
N241       Cu249   2.063       .  S
N242        C243   1.346       .  A
N242       Cu248   2.073       .  S
C243        C244   1.388       .  A
C243        H246   1.082       .  S
C244       C3202   1.482       .  S
C244        C245   1.386       .  A
C245        H247   1.082       .  S
Cu248       N251   2.073       .  S
Cu249       N259   2.064       .  S
Cu250       N252   2.104       .  S
Cu250       N258   2.105       .  S
N251        N252   1.324       .  A
N251        C255   1.338       .  A
N252        C253   1.356       .  A
C253        C254   1.391       .  A
C253        H256   1.082       .  S
C254        C255   1.380       .  A
C255        H257   1.082       .  S
N258        N259   1.323       .  A
N258        C262   1.352       .  A
N259        C260   1.340       .  A
C260        C261   1.382       .  A
C260        H263   1.081       .  S
C261       C2253   1.488       .  S
C261        C262   1.393       .  A
C262        H264   1.082       .  S
N265        N266   1.316       .  A
N265        C269   1.342       .  A
N265       Cu273   2.051       .  S
N266        C267   1.343       .  A
N266       Cu272   2.062       .  S
C267        C268   1.389       .  A
C267        H270   1.081       .  S
C268       C2882   1.482       .  S
C268        C269   1.386       .  A
C269        H271   1.081       .  S
Cu272       N275   2.061       .  S
Cu273       N283   2.053       .  S
Cu274       N276   2.113       .  S
Cu274       N282   2.113       .  S
N275        N276   1.324       .  A
N275        C279   1.338       .  A
N276        C277   1.356       .  A
C277        C278   1.392       .  A
C277        H280   1.082       .  S
C278        C302   1.475   1_556  S
C278        C279   1.377       .  A
C279        H281   1.082       .  S
N282        N283   1.322       .  A
N282        C286   1.353       .  A
N283        C284   1.338       .  A
C284        C285   1.382       .  A
C284        H287   1.081       .  S
C285       C2233   1.494       .  S
C285        C286   1.398       .  A
C286        H288   1.080       .  S
N289        N290   1.319       .  A
N289        C293   1.344       .  A
N289       Cu297   2.065       .  S
N290        C291   1.345       .  A
N290       Cu296   2.072       .  S
C291        C292   1.389       .  A
C291        H294   1.081       .  S
C292       C2962   1.484       .  S
C292        C293   1.386       .  A
C293        H295   1.082       .  S
Cu296       N299   2.071       .  S
Cu297       N307   2.066       .  S
Cu298       N300   2.103       .  S
Cu298       N306   2.103       .  S
N299        N300   1.324       .  A
N299        C303   1.340       .  A
N300        C301   1.354       .  A
C301        C302   1.390       .  A
C301        H304   1.082       .  S
C302        C303   1.380       .  A
C303        H305   1.082       .  S
N306        N307   1.324       .  A
N306        C310   1.351       .  A
N307        C308   1.342       .  A
C308        C309   1.380       .  A
C308        H311   1.082       .  S
C309       C2222   1.481       .  S
C309        C310   1.390       .  A
C310        H312   1.082       .  S
N313        N314   1.318       .  A
N313        C317   1.345       .  A
N313       Cu321   2.061       .  S
N314        C315   1.343       .  A
N314       Cu320   2.068       .  S
C315        C316   1.386       .  A
C315        H318   1.082       .  S
C316       C3022   1.480       .  S
C316        C317   1.387       .  A
C317        H319   1.081       .  S
Cu320       N323   2.067       .  S
Cu321       N331   2.062       .  S
Cu322       N324   2.110       .  S
Cu322       N330   2.112       .  S
N323        N324   1.323       .  A
N323        C327   1.338       .  A
N324        C325   1.357       .  A
C325        C326   1.393       .  A
C325        H328   1.082       .  S
C326        C350   1.484   1_655  S
C326        C327   1.381       .  A
C327        H329   1.082       .  S
N330        N331   1.324       .  A
N330        C334   1.353       .  A
N331        C332   1.340       .  A
C332        C333   1.380       .  A
C332        H335   1.081       .  S
C333       C2202   1.487       .  S
C333        C334   1.394       .  A
C334        H336   1.082       .  S
N337        N338   1.317       .  A
N337        C341   1.346       .  A
N337       Cu345   2.066       .  S
N338        C339   1.342       .  A
N338       Cu344   2.060       .  S
C339        C340   1.386       .  A
C339        H342   1.081       .  S
C340       C3162   1.481       .  S
C340        C341   1.388       .  A
C341        H343   1.082       .  S
Cu344       N347   2.060       .  S
Cu345       N355   2.069       .  S
Cu346       N348   2.115       .  S
Cu346       N354   2.118       .  S
N347        N348   1.322       .  A
N347        C351   1.337       .  A
N348        C349   1.358       .  A
C349        C350   1.395       .  A
C349        H352   1.082       .  S
C350        C351   1.379       .  A
C351        H353   1.082       .  S
N354        N355   1.326       .  A
N354        C358   1.353       .  A
N355        C356   1.341       .  A
C356        C357   1.380       .  A
C356        H359   1.082       .  S
C357       C2173   1.487       .  S
C357        C358   1.393       .  A
C358        H360   1.081       .  S
N361        N362   1.316       .  A
N361        C365   1.348       .  A
N361       Cu369   2.076       .  S
N362        C363   1.340       .  A
N362       Cu368   2.054       .  S
C363        C364   1.388       .  A
C363        H366   1.081       .  S
C364       C3073   1.491       .  S
C364        C365   1.394       .  A
C365        H367   1.080       .  S
Cu368       N371   2.053       .  S
Cu369       N379   2.079       .  S
Cu370       N372   2.103       .  S
Cu370       N378   2.106       .  S
N371        N372   1.322       .  A
N371        C375   1.336       .  A
N372        C373   1.356       .  A
C373        C374   1.392       .  A
C373        H376   1.082       .  S
C374        C398   1.475   1_565  S
C374        C375   1.377       .  A
C375        H377   1.082       .  S
N378        N379   1.326       .  A
N378        C382   1.351       .  A
N379        C380   1.342       .  A
C380        C381   1.383       .  A
C380        H383   1.081       .  S
C381       C2153   1.489       .  S
C381        C382   1.391       .  A
C382        H384   1.082       .  S
N385        N386   1.318       .  A
N385        C389   1.347       .  A
N385       Cu393   2.068       .  S
N386        C387   1.340       .  A
N386       Cu392   2.054       .  S
C387        C388   1.384       .  A
C387        H390   1.081       .  S
C388       C3262   1.478       .  S
C388        C389   1.387       .  A
C389        H391   1.082       .  S
Cu392       N395   2.054       .  S
Cu393       N403   2.070       .  S
Cu394       N396   2.100       .  S
Cu394       N402   2.103       .  S
N395        N396   1.322       .  A
N395        C399   1.336       .  A
N396        C397   1.356       .  A
C397        C398   1.392       .  A
C397        H400   1.082       .  S
C398        C399   1.378       .  A
C399        H401   1.082       .  S
N402        N403   1.325       .  A
N402        C406   1.350       .  A
N403        C404   1.342       .  A
C404        C405   1.380       .  A
C404        H407   1.082       .  S
C405       C2133   1.481       .  S
C405        C406   1.389       .  A
C406        H408   1.082       .  S
N409        N410   1.318       .  A
N409        C413   1.347       .  A
N409       Cu417   2.075       .  S
N410        C411   1.343       .  A
N410       Cu416   2.066       .  S
C411        C412   1.388       .  A
C411        H414   1.081       .  S
C412       C3002   1.489       .  S
C412        C413   1.391       .  A
C413        H415   1.081       .  S
Cu416       N419   2.065       .  S
Cu417       N427   2.078       .  S
Cu418       N420   2.113       .  S
Cu418       N426   2.115       .  S
N419        N420   1.322       .  A
N419        C423   1.338       .  A
N420        C421   1.358       .  A
C421        C422   1.394       .  A
C421        H424   1.082       .  S
C422        C446   1.483   1_655  S
C422        C423   1.381       .  A
C423        H425   1.082       .  S
N426        N427   1.325       .  A
N426        C430   1.352       .  A
N427        C428   1.344       .  A
C428        C429   1.384       .  A
C428        H431   1.082       .  S
C429       C2113   1.492       .  S
C429        C430   1.393       .  A
C430        H432   1.081       .  S
N433        N434   1.317       .  A
N433        C437   1.346       .  A
N433       Cu441   2.063       .  S
N434        C435   1.342       .  A
N434       Cu440   2.057       .  S
C435        C436   1.385       .  A
C435        H438   1.082       .  S
C436       C3173   1.476       .  S
C436        C437   1.386       .  A
C437        H439   1.082       .  S
Cu440       N443   2.058       .  S
Cu441       N451   2.065       .  S
Cu442       N444   2.126       .  S
Cu442       N450   2.128       .  S
N443        N444   1.324       .  A
N443        C447   1.337       .  A
N444        C445   1.360       .  A
C445        C446   1.396       .  A
C445        H448   1.082       .  S
C446        C447   1.377       .  A
C447        H449   1.082       .  S
N450        N451   1.325       .  A
N450        C454   1.356       .  A
N451        C452   1.340       .  A
C452        C453   1.380       .  A
C452        H455   1.082       .  S
C453       C2102   1.493       .  S
C453        C454   1.397       .  A
C454        H456   1.081       .  S
N457        N458   1.317       .  A
N457        C461   1.346       .  A
N457       Cu465   2.060       .  S
N458        C459   1.342       .  A
N458       Cu464   2.067       .  S
C459        C460   1.387       .  A
C459        H462   1.081       .  S
C460       C3102   1.481       .  S
C460        C461   1.388       .  A
C461        H463   1.082       .  S
Cu464       N467   2.067       .  S
Cu465       N475   2.062       .  S
Cu466       N468   2.107       .  S
Cu466       N474   2.109       .  S
N467        N468   1.323       .  A
N467        C471   1.337       .  A
N468        C469   1.357       .  A
C469        C470   1.393       .  A
C469        H472   1.082       .  S
C470        C494   1.479   1_565  S
C470        C471   1.380       .  A
C471        H473   1.082       .  S
N474        N475   1.324       .  A
N474        C478   1.352       .  A
N475        C476   1.339       .  A
C476        C477   1.380       .  A
C476        H479   1.082       .  S
C477       C2082   1.486       .  S
C477        C478   1.393       .  A
C478        H480   1.081       .  S
N481        N482   1.317       .  A
N481        C485   1.347       .  A
N481       Cu489   2.067       .  S
N482        C483   1.342       .  A
N482       Cu488   2.057       .  S
C483        C484   1.384       .  A
C483        H486   1.082       .  S
C484       C3233   1.478       .  S
C484        C485   1.387       .  A
C485        H487   1.082       .  S
Cu488       N491   2.057       .  S
Cu489       N499   2.070       .  S
Cu490       N492   2.114       .  S
Cu490       N498   2.116       .  S
N491        N492   1.323       .  A
N491        C495   1.336       .  A
N492        C493   1.358       .  A
C493        C494   1.395       .  A
C493        H496   1.082       .  S
C494        C495   1.377       .  A
C495        H497   1.082       .  S
N498        N499   1.326       .  A
N498        C502   1.353       .  A
N499        C500   1.341       .  A
C500        C501   1.381       .  A
C500        H503   1.082       .  S
C501       C2062   1.490       .  S
C501        C502   1.394       .  A
C502        H504   1.081       .  S
N505        N506   1.317       .  A
N505        C509   1.349       .  A
N505       Cu513   2.075       .  S
N506        C507   1.340       .  A
N506       Cu512   2.054       .  S
C507        C508   1.384       .  A
C507        H510   1.081       .  S
C508       C2842   1.483       .  S
C508        C509   1.392       .  A
C509        H511   1.082       .  S
Cu512       N515   2.054       .  S
Cu513       N523   2.077       .  S
Cu514       N516   2.113       .  S
Cu514       N522   2.116       .  S
N515        N516   1.322       .  A
N515        C519   1.337       .  A
N516        C517   1.358       .  A
C517        C518   1.395       .  A
C517        H520   1.082       .  S
C518        C542   1.480   1_556  S
C518        C519   1.377       .  A
C519        H521   1.082       .  S
N522        N523   1.327       .  A
N522        C526   1.354       .  A
N523        C524   1.340       .  A
C524        C525   1.377       .  A
C524        H527   1.082       .  S
C525       C2033   1.482       .  S
C525        C526   1.391       .  A
C526        H528   1.082       .  S
N529        N530   1.318       .  A
N529        C533   1.345       .  A
N529       Cu537   2.061       .  S
N530        C531   1.343       .  A
N530       Cu536   2.066       .  S
C531        C532   1.387       .  A
C531        H534   1.081       .  S
C532       C2942   1.480       .  S
C532        C533   1.386       .  A
C533        H535   1.082       .  S
Cu536       N539   2.067       .  S
Cu537       N547   2.064       .  S
Cu538       N540   2.109       .  S
Cu538       N546   2.110       .  S
N539        N540   1.323       .  A
N539        C543   1.339       .  A
N540        C541   1.356       .  A
C541        C542   1.392       .  A
C541        H544   1.082       .  S
C542        C543   1.380       .  A
C543        H545   1.082       .  S
N546        N547   1.324       .  A
N546        C550   1.352       .  A
N547        C548   1.341       .  A
C548        C549   1.380       .  A
C548        H551   1.082       .  S
C549       C2013   1.485       .  S
C549        C550   1.392       .  A
C550        H552   1.082       .  S
N553        N554   1.317       .  A
N553        C557   1.346       .  A
N553       Cu561   2.067       .  S
N554        C555   1.342       .  A
N554       Cu560   2.057       .  S
C555        C556   1.385       .  A
C555        H558   1.082       .  S
C556       C2862   1.481       .  S
C556        C557   1.388       .  A
C557        H559   1.082       .  S
Cu560       N563   2.057       .  S
Cu561       N571   2.070       .  S
Cu562       N564   2.117       .  S
Cu562       N570   2.119       .  S
N563        N564   1.323       .  A
N563        C567   1.336       .  A
N564        C565   1.359       .  A
C565        C566   1.395       .  A
C565        H568   1.082       .  S
C566        C590   1.480   1_556  S
C566        C567   1.377       .  A
C567        H569   1.082       .  S
N570        N571   1.326       .  A
N570        C574   1.353       .  A
N571        C572   1.342       .  A
C572        C573   1.380       .  A
C572        H575   1.082       .  S
C573       C2002   1.489       .  S
C573        C574   1.394       .  A
C574        H576   1.082       .  S
N577        N578   1.317       .  A
N577        C581   1.345       .  A
N577       Cu585   2.066       .  S
N578        C579   1.344       .  A
N578       Cu584   2.066       .  S
C579        C580   1.389       .  A
C579        H582   1.082       .  S
C580       C2922   1.488       .  S
C580        C581   1.390       .  A
C581        H583   1.081       .  S
Cu584       N587   2.064       .  S
Cu585       N595   2.068       .  S
Cu586       N588   2.109       .  S
Cu586       N594   2.110       .  S
N587        N588   1.323       .  A
N587        C591   1.337       .  A
N588        C589   1.357       .  A
C589        C590   1.394       .  A
C589        H592   1.082       .  S
C590        C591   1.379       .  A
C591        H593   1.082       .  S
N594        N595   1.325       .  A
N594        C598   1.353       .  A
N595        C596   1.340       .  A
C596        C597   1.381       .  A
C596        H599   1.082       .  S
C597       C1982   1.486       .  S
C597        C598   1.392       .  A
C598        H600   1.082       .  S
N601        N602   1.317       .  A
N601        C605   1.347       .  A
N601       Cu609   2.066       .  S
N602        C603   1.342       .  A
N602       Cu608   2.065       .  S
C603        C604   1.387       .  A
C603        H606   1.081       .  S
C604       C3062   1.486       .  S
C604        C605   1.390       .  A
C605        H607   1.082       .  S
Cu608       N611   2.065       .  S
Cu609       N619   2.067       .  S
Cu610       N612   2.099       .  S
Cu610       N618   2.101       .  S
N611        N612   1.323       .  A
N611        C615   1.337       .  A
N612        C613   1.356       .  A
C613        C614   1.392       .  A
C613        H616   1.082       .  S
C614        C638   1.478   1_565  S
C614        C615   1.379       .  A
C615        H617   1.082       .  S
N618        N619   1.326       .  A
N618        C622   1.351       .  A
N619        C620   1.338       .  A
C620        C621   1.378       .  A
C620        H623   1.081       .  S
C621       C1953   1.479       .  S
C621        C622   1.389       .  A
C622        H624   1.082       .  S
N625        N626   1.316       .  A
N625        C629   1.345       .  A
N625       Cu633   2.064       .  S
N626        C627   1.344       .  A
N626       Cu632   2.061       .  S
C627        C628   1.389       .  A
C627        H630   1.082       .  S
C628       C3213   1.485       .  S
C628        C629   1.389       .  A
C629        H631   1.081       .  S
Cu632       N635   2.060       .  S
Cu633       N643   2.066       .  S
Cu634       N636   2.116       .  S
Cu634       N642   2.117       .  S
N635        N636   1.324       .  A
N635        C639   1.336       .  A
N636        C637   1.358       .  A
C637        C638   1.393       .  A
C637        H640   1.082       .  S
C638        C639   1.376       .  A
C639        H641   1.082       .  S
N642        N643   1.324       .  A
N642        C646   1.354       .  A
N643        C644   1.340       .  A
C644        C645   1.382       .  A
C644        H647   1.081       .  S
C645       C1933   1.493       .  S
C645        C646   1.396       .  A
C646        H648   1.082       .  S
N649        N650   1.318       .  A
N649        C653   1.348       .  A
N649       Cu657   2.075       .  S
N650        C651   1.341       .  A
N650       Cu656   2.056       .  S
C651        C652   1.384       .  A
C651        H654   1.082       .  S
C652       C2973   1.482       .  S
C652        C653   1.390       .  A
C653        H655   1.081       .  S
Cu656       N659   2.057       .  S
Cu657       N667   2.078       .  S
Cu658       N660   2.112       .  S
Cu658       N666   2.114       .  S
N659        N660   1.322       .  A
N659        C663   1.339       .  A
N660        C661   1.356       .  A
C661        C662   1.393       .  A
C661        H664   1.082       .  S
C662        C686   1.478   1_655  S
C662        C663   1.378       .  A
C663        H665   1.082       .  S
N666        N667   1.325       .  A
N666        C670   1.353       .  A
N667        C668   1.342       .  A
C668        C669   1.384       .  A
C668        H671   1.082       .  S
C669       C1922   1.494       .  S
C669        C670   1.394       .  A
C670        H672   1.081       .  S
N673        N674   1.318       .  A
N673        C677   1.347       .  A
N673       Cu681   2.078       .  S
N674        C675   1.342       .  A
N674       Cu680   2.061       .  S
C675        C676   1.387       .  A
C675        H678   1.081       .  S
C676       C3142   1.490       .  S
C676        C677   1.393       .  A
C677        H679   1.080       .  S
Cu680       N683   2.062       .  S
Cu681       N691   2.080       .  S
Cu682       N684   2.104       .  S
Cu682       N690   2.106       .  S
N683        N684   1.322       .  A
N683        C687   1.340       .  A
N684        C685   1.355       .  A
C685        C686   1.391       .  A
C685        H688   1.082       .  S
C686        C687   1.380       .  A
C687        H689   1.082       .  S
N690        N691   1.325       .  A
N690        C694   1.351       .  A
N691        C692   1.344       .  A
C692        C693   1.385       .  A
C692        H695   1.082       .  S
C693       C1902   1.489       .  S
C693        C694   1.390       .  A
C694        H696   1.082       .  S
N697        N698   1.316       .  A
N697        C701   1.343       .  A
N697       Cu705   2.060       .  S
N698        C699   1.344       .  A
N698       Cu704   2.059       .  S
C699        C700   1.388       .  A
C699        H702   1.081       .  S
C700       C2813   1.482       .  S
C700        C701   1.387       .  A
C701        H703   1.082       .  S
Cu704       N707   2.057       .  S
Cu705       N715   2.062       .  S
Cu706       N708   2.112       .  S
Cu706       N714   2.114       .  S
N707        N708   1.323       .  A
N707        C711   1.333       .  A
N708        C709   1.359       .  A
C709        C710   1.395       .  A
C709        H712   1.082       .  S
C710        C734   1.482   1_556  S
C710        C711   1.378       .  A
C711        H713   1.081       .  S
N714        N715   1.324       .  A
N714        C718   1.352       .  A
N715        C716   1.340       .  A
C716        C717   1.382       .  A
C716        H719   1.081       .  S
C717       C1882   1.492       .  S
C717        C718   1.395       .  A
C718        H720   1.081       .  S
N721        N722   1.315       .  A
N721        C725   1.347       .  A
N721       Cu729   2.067       .  S
N722        C723   1.342       .  A
N722       Cu728   2.057       .  S
C723        C724   1.388       .  A
C723        H726   1.082       .  S
C724       C2902   1.486       .  S
C724        C725   1.391       .  A
C725        H727   1.081       .  S
Cu728       N731   2.056       .  S
Cu729       N739   2.069       .  S
Cu730       N732   2.111       .  S
Cu730       N738   2.115       .  S
N731        N732   1.323       .  A
N731        C735   1.333       .  A
N732        C733   1.360       .  A
C733        C734   1.395       .  A
C733        H736   1.082       .  S
C734        C735   1.378       .  A
C735        H737   1.081       .  S
N738        N739   1.326       .  A
N738        C742   1.353       .  A
N739        C740   1.340       .  A
C740        C741   1.378       .  A
C740        H743   1.082       .  S
C741       C1853   1.483       .  S
C741        C742   1.392       .  A
C742        H744   1.082       .  S
N745        N746   1.319       .  A
N745        C749   1.346       .  A
N745       Cu753   2.068       .  S
N746        C747   1.343       .  A
N746       Cu752   2.064       .  S
C747        C748   1.385       .  A
C747        H750   1.082       .  S
C748       C2642   1.478       .  S
C748        C749   1.386       .  A
C749        H751   1.082       .  S
Cu752       N755   2.064       .  S
Cu753       N763   2.070       .  S
Cu754       N756   2.109       .  S
Cu754       N762   2.111       .  S
N755        N756   1.323       .  A
N755        C759   1.338       .  A
N756        C757   1.356       .  A
C757        C758   1.392       .  A
C757        H760   1.082       .  S
C758        C782   1.479       .  S
C758        C759   1.380       .  A
C759        H761   1.082       .  S
N762        N763   1.325       .  A
N762        C766   1.353       .  A
N763        C764   1.342       .  A
C764        C765   1.380       .  A
C764        H767   1.082       .  S
C765       C1842   1.484       .  S
C765        C766   1.391       .  A
C766        H768   1.082       .  S
N769        N770   1.317       .  A
N769        C773   1.344       .  A
N769       Cu777   2.055       .  S
N770        C771   1.341       .  A
N770       Cu776   2.055       .  S
C771        C772   1.384       .  A
C771        H774   1.082       .  S
C772       C2802   1.476       .  S
C772        C773   1.386       .  A
C773        H775   1.081       .  S
Cu776       N779   2.056       .  S
Cu777       N787   2.057       .  S
Cu778       N780   2.114       .  S
Cu778       N786   2.115       .  S
N779        N780   1.323       .  A
N779        C783   1.337       .  A
N780        C781   1.357       .  A
C781        C782   1.393       .  A
C781        H784   1.082       .  S
C782        C783   1.377       .  A
C783        H785   1.082       .  S
N786        N787   1.324       .  A
N786        C790   1.353       .  A
N787        C788   1.339       .  A
C788        C789   1.379       .  A
C788        H791   1.082       .  S
C789       C1813   1.486       .  S
C789        C790   1.394       .  A
C790        H792   1.081       .  S
N793        N794   1.316       .  A
N793        C797   1.346       .  A
N793       Cu801   2.071       .  S
N794        C795   1.345       .  A
N794       Cu800   2.067       .  S
C795        C796   1.390       .  A
C795        H798   1.081       .  S
C796       C2562   1.490       .  S
C796        C797   1.391       .  A
C797        H799   1.081       .  S
Cu800       N803   2.066       .  S
Cu801       N811   2.073       .  S
Cu802       N804   2.109       .  S
Cu802       N810   2.112       .  S
N803        N804   1.323       .  A
N803        C807   1.334       .  A
N804        C805   1.359       .  A
C805        C806   1.395       .  A
C805        H808   1.082       .  S
C806        C830   1.484       .  S
C806        C807   1.380       .  A
C807        H809   1.081       .  S
N810        N811   1.325       .  A
N810        C814   1.354       .  A
N811        C812   1.341       .  A
C812        C813   1.381       .  A
C812        H815   1.082       .  S
C813       C1802   1.489       .  S
C813        C814   1.393       .  A
C814        H816   1.082       .  S
N817        N818   1.315       .  A
N817        C821   1.348       .  A
N817       Cu825   2.073       .  S
N818        C819   1.341       .  A
N818       Cu824   2.050       .  S
C819        C820   1.386       .  A
C819        H822   1.082       .  S
C820       C2722   1.486       .  S
C820        C821   1.392       .  A
C821        H823   1.081       .  S
Cu824       N827   2.049       .  S
Cu825       N835   2.076       .  S
Cu826       N828   2.117       .  S
Cu826       N834   2.121       .  S
N827        N828   1.322       .  A
N827        C831   1.332       .  A
N828        C829   1.361       .  A
C829        C830   1.398       .  A
C829        H832   1.082       .  S
C830        C831   1.377       .  A
C831        H833   1.081       .  S
N834        N835   1.328       .  A
N834        C838   1.355       .  A
N835        C836   1.341       .  A
C836        C837   1.377       .  A
C836        H839   1.081       .  S
C837       C1782   1.483       .  S
C837        C838   1.391       .  A
C838        H840   1.081       .  S
N841        N842   1.318       .  A
N841        C845   1.344       .  A
N841       Cu849   2.070       .  S
N842        C843   1.344       .  A
N842       Cu848   2.062       .  S
C843        C844   1.388       .  A
C843        H846   1.081       .  S
C844       C2542   1.488       .  S
C844        C845   1.390       .  A
C845        H847   1.081       .  S
Cu848       N851   2.062       .  S
Cu849       N859   2.072       .  S
Cu850       N852   2.109       .  S
Cu850       N858   2.110       .  S
N851        N852   1.323       .  A
N851        C855   1.339       .  A
N852        C853   1.356       .  A
C853        C854   1.392       .  A
C853        H856   1.082       .  S
C854        C878   1.478       .  S
C854        C855   1.379       .  A
C855        H857   1.082       .  S
N858        N859   1.324       .  A
N858        C862   1.351       .  A
N859        C860   1.343       .  A
C860        C861   1.383       .  A
C860        H863   1.081       .  S
C861       C1753   1.490       .  S
C861        C862   1.392       .  A
C862        H864   1.082       .  S
N865        N866   1.318       .  A
N865        C869   1.348       .  A
N865       Cu873   2.079       .  S
N866        C867   1.343       .  A
N866       Cu872   2.063       .  S
C867        C868   1.386       .  A
C867        H870   1.082       .  S
C868       C2682   1.487       .  S
C868        C869   1.391       .  A
C869        H871   1.081       .  S
Cu872       N875   2.063       .  S
Cu873       N883   2.081       .  S
Cu874       N876   2.115       .  S
Cu874       N882   2.117       .  S
N875        N876   1.323       .  A
N875        C879   1.339       .  A
N876        C877   1.356       .  A
C877        C878   1.393       .  A
C877        H880   1.082       .  S
C878        C879   1.379       .  A
C879        H881   1.082       .  S
N882        N883   1.325       .  A
N882        C886   1.355       .  A
N883        C884   1.343       .  A
C884        C885   1.384       .  A
C884        H887   1.081       .  S
C885       C1742   1.494       .  S
C885        C886   1.395       .  A
C886        H888   1.082       .  S
N889        N890   1.317       .  A
N889        C893   1.345       .  A
N889       Cu897   2.064       .  S
N890        C891   1.345       .  A
N890       Cu896   2.073       .  S
C891        C892   1.390       .  A
C891        H894   1.082       .  S
C892       C2522   1.489       .  S
C892        C893   1.390       .  A
C893        H895   1.081       .  S
Cu896       N899   2.073       .  S
Cu897       N907   2.065       .  S
Cu898       N900   2.120       .  S
Cu898       N906   2.121       .  S
N899        N900   1.324       .  A
N899        C903   1.337       .  A
N900        C901   1.361       .  A
C901        C902   1.397       .  A
C901        H904   1.082       .  S
C902        C926   1.491       .  S
C902        C903   1.382       .  A
C903        H905   1.081       .  S
N906        N907   1.325       .  A
N906        C910   1.354       .  A
N907        C908   1.341       .  A
C908        C909   1.381       .  A
C908        H911   1.081       .  S
C909       C1713   1.491       .  S
C909        C910   1.395       .  A
C910        H912   1.082       .  S
N913        N914   1.316       .  A
N913        C917   1.347       .  A
N913       Cu921   2.067       .  S
N914        C915   1.341       .  A
N914       Cu920   2.058       .  S
C915        C916   1.387       .  A
C915        H918   1.081       .  S
C916       C2702   1.485       .  S
C916        C917   1.390       .  A
C917        H919   1.082       .  S
Cu920       N923   2.057       .  S
Cu921       N931   2.069       .  S
Cu922       N924   2.130       .  S
Cu922       N930   2.132       .  S
N923        N924   1.322       .  A
N923        C927   1.335       .  A
N924        C925   1.362       .  A
C925        C926   1.400       .  A
C925        H928   1.082       .  S
C926        C927   1.379       .  A
C927        H929   1.081       .  S
N930        N931   1.327       .  A
N930        C934   1.357       .  A
N931        C932   1.340       .  A
C932        C933   1.378       .  A
C932        H935   1.082       .  S
C933       C1693   1.489       .  S
C933        C934   1.395       .  A
C934        H936   1.082       .  S
N937        N938   1.317       .  A
N937        C941   1.343       .  A
N937       Cu945   2.057       .  S
N938        C939   1.345       .  A
N938       Cu944   2.067       .  S
C939        C940   1.388       .  A
C939        H942   1.082       .  S
C940       C2613   1.480       .  S
C940        C941   1.385       .  A
C941        H943   1.082       .  S
Cu944       N947   2.068       .  S
Cu945       N955   2.057       .  S
Cu946       N948   2.123       .  S
Cu946       N954   2.123       .  S
N947        N948   1.326       .  A
N947        C951   1.338       .  A
N948        C949   1.358       .  A
C949        C950   1.393       .  A
C949        H952   1.082       .  S
C950        C974   1.479       .  S
C950        C951   1.378       .  A
C951        H953   1.082       .  S
N954        N955   1.323       .  A
N954        C958   1.357       .  A
N955        C956   1.338       .  A
C956        C957   1.380       .  A
C956        H959   1.081       .  S
C957       C1682   1.492       .  S
C957        C958   1.398       .  A
C958        H960   1.082       .  S
N961        N962   1.317       .  A
N961        C965   1.346       .  A
N961       Cu969   2.062       .  S
N962        C963   1.341       .  A
N962       Cu968   2.058       .  S
C963        C964   1.385       .  A
C963        H966   1.082       .  S
C964       C2762   1.480       .  S
C964        C965   1.388       .  A
C965        H967   1.081       .  S
Cu968       N971   2.058       .  S
Cu969       N979   2.065       .  S
Cu970       N972   2.113       .  S
Cu970       N978   2.114       .  S
N971        N972   1.323       .  A
N971        C975   1.338       .  A
N972        C973   1.357       .  A
C973        C974   1.394       .  A
C973        H976   1.082       .  S
C974        C975   1.378       .  A
C975        H977   1.082       .  S
N978        N979   1.326       .  A
N978        C982   1.353       .  A
N979        C980   1.339       .  A
C980        C981   1.378       .  A
C980        H983   1.082       .  S
C981       C1662   1.481       .  S
C981        C982   1.391       .  A
C982        H984   1.082       .  S
N985        N986   1.319       .  A
N985        C989   1.347       .  A
N985       Cu993   2.074       .  S
N986        C987   1.345       .  A
N986       Cu992   2.072       .  S
C987        C988   1.389       .  A
C987        H990   1.082       .  S
C988       C2382   1.488       .  S
C988        C989   1.390       .  A
C989        H991   1.081       .  S
Cu992       N995   2.072       .  S
Cu993      N1003   2.075       .  S
Cu994       N996   2.117       .  S
Cu994      N1002   2.118       .  S
N995        N996   1.324       .  A
N995        C999   1.339       .  A
N996        C997   1.358       .  A
C997        C998   1.393       .  A
C997       H1000   1.082       .  S
C998       C1022   1.483       .  S
C998        C999   1.381       .  A
C999       H1001   1.082       .  S
N1002      N1003   1.325       .  A
N1002      C1006   1.355       .  A
N1003      C1004   1.343       .  A
C1004      C1005   1.380       .  A
C1004      H1007   1.082       .  S
C1005      C1633   1.487       .  S
C1005      C1006   1.393       .  A
C1006      H1008   1.082       .  S
N1009      N1010   1.318       .  A
N1009      C1013   1.348       .  A
N1009     Cu1017   2.078       .  S
N1010      C1011   1.343       .  A
N1010     Cu1016   2.059       .  S
C1011      C1012   1.386       .  A
C1011      H1014   1.082       .  S
C1012      C2442   1.487       .  S
C1012      C1013   1.392       .  A
C1013      H1015   1.081       .  S
Cu1016     N1019   2.059       .  S
Cu1017     N1027   2.080       .  S
Cu1018     N1020   2.117       .  S
Cu1018     N1026   2.118       .  S
N1019      N1020   1.322       .  A
N1019      C1023   1.338       .  A
N1020      C1021   1.358       .  A
C1021      C1022   1.395       .  A
C1021      H1024   1.082       .  S
C1022      C1023   1.378       .  A
C1023      H1025   1.082       .  S
N1026      N1027   1.325       .  A
N1026      C1030   1.352       .  A
N1027      C1028   1.344       .  A
C1028      C1029   1.385       .  A
C1028      H1031   1.082       .  S
C1029      C1613   1.497       .  S
C1029      C1030   1.395       .  A
C1030      H1032   1.081       .  S
N1033      N1034   1.316       .  A
N1033      C1037   1.347       .  A
N1033     Cu1041   2.074       .  S
N1034      C1035   1.342       .  A
N1034     Cu1040   2.058       .  S
C1035      C1036   1.389       .  A
C1035      H1038   1.080       .  S
C1036      C2362   1.491       .  S
C1036      C1037   1.393       .  A
C1037      H1039   1.081       .  S
Cu1040     N1043   2.057       .  S
Cu1041     N1051   2.075       .  S
Cu1042     N1044   2.115       .  S
Cu1042     N1050   2.118       .  S
N1043      N1044   1.322       .  A
N1043      C1047   1.335       .  A
N1044      C1045   1.359       .  A
C1045      C1046   1.396       .  A
C1045      H1048   1.082       .  S
C1046      C1070   1.485       .  S
C1046      C1047   1.379       .  A
C1047      H1049   1.081       .  S
N1050      N1051   1.326       .  A
N1050      C1054   1.354       .  A
N1051      C1052   1.341       .  A
C1052      C1053   1.381       .  A
C1052      H1055   1.081       .  S
C1053      C1602   1.489       .  S
C1053      C1054   1.393       .  A
C1054      H1056   1.082       .  S
N1057      N1058   1.317       .  A
N1057      C1061   1.347       .  A
N1057     Cu1065   2.076       .  S
N1058      C1059   1.344       .  A
N1058     Cu1064   2.065       .  S
C1059      C1060   1.388       .  A
C1059      H1062   1.081       .  S
C1060      C2462   1.490       .  S
C1060      C1061   1.392       .  A
C1061      H1063   1.082       .  S
Cu1064     N1067   2.064       .  S
Cu1065     N1075   2.077       .  S
Cu1066     N1068   2.110       .  S
Cu1066     N1074   2.112       .  S
N1067      N1068   1.323       .  A
N1067      C1071   1.336       .  A
N1068      C1069   1.358       .  A
C1069      C1070   1.395       .  A
C1069      H1072   1.082       .  S
C1070      C1071   1.380       .  A
C1071      H1073   1.081       .  S
N1074      N1075   1.325       .  A
N1074      C1078   1.354       .  A
N1075      C1076   1.341       .  A
C1076      C1077   1.383       .  A
C1076      H1079   1.082       .  S
C1077      C1582   1.491       .  S
C1077      C1078   1.393       .  A
C1078      H1080   1.082       .  S
N1081      N1082   1.317       .  A
N1081      C1085   1.343       .  A
N1081     Cu1089   2.057       .  S
N1082      C1083   1.342       .  A
N1082     Cu1088   2.060       .  S
C1083      C1084   1.387       .  A
C1083      H1086   1.081       .  S
C1084      C2582   1.480       .  S
C1084      C1085   1.387       .  A
C1085      H1087   1.082       .  S
Cu1088     N1091   2.059       .  S
Cu1089     N1099   2.059       .  S
Cu1090     N1092   2.114       .  S
Cu1090     N1098   2.116       .  S
N1091      N1092   1.323       .  A
N1091      C1095   1.338       .  A
N1092      C1093   1.356       .  A
C1093      C1094   1.393       .  A
C1093      H1096   1.082       .  S
C1094      C1118   1.478       .  S
C1094      C1095   1.378       .  A
C1095      H1097   1.082       .  S
N1098      N1099   1.324       .  A
N1098      C1102   1.354       .  A
N1099      C1100   1.340       .  A
C1100      C1101   1.379       .  A
C1100      H1103   1.082       .  S
C1101      C1553   1.486       .  S
C1101      C1102   1.394       .  A
C1102      H1104   1.082       .  S
N1105      N1106   1.318       .  A
N1105      C1109   1.347       .  A
N1105     Cu1113   2.074       .  S
N1106      C1107   1.344       .  A
N1106     Cu1112   2.067       .  S
C1107      C1108   1.386       .  A
C1107      H1110   1.082       .  S
C1108      C2733   1.484       .  S
C1108      C1109   1.389       .  A
C1109      H1111   1.081       .  S
Cu1112     N1115   2.067       .  S
Cu1113     N1123   2.076       .  S
Cu1114     N1116   2.105       .  S
Cu1114     N1122   2.107       .  S
N1115      N1116   1.323       .  A
N1115      C1119   1.338       .  A
N1116      C1117   1.356       .  A
C1117      C1118   1.392       .  A
C1117      H1120   1.082       .  S
C1118      C1119   1.379       .  A
C1119      H1121   1.082       .  S
N1122      N1123   1.325       .  A
N1122      C1126   1.351       .  A
N1123      C1124   1.343       .  A
C1124      C1125   1.383       .  A
C1124      H1127   1.082       .  S
C1125      C1533   1.490       .  S
C1125      C1126   1.392       .  A
C1126      H1128   1.081       .  S
N1129      N1130   1.318       .  A
N1129      C1133   1.346       .  A
N1129     Cu1137   2.067       .  S
N1130      C1131   1.343       .  A
N1130     Cu1136   2.056       .  S
C1131      C1132   1.383       .  A
C1131      H1134   1.082       .  S
C1132      C2342   1.474       .  S
C1132      C1133   1.386       .  A
C1133      H1135   1.082       .  S
Cu1136     N1139   2.054       .  S
Cu1137     N1147   2.069       .  S
Cu1138     N1140   2.112       .  S
Cu1138     N1146   2.115       .  S
N1139      N1140   1.323       .  A
N1139      C1143   1.336       .  A
N1140      C1141   1.356       .  A
C1141      C1142   1.393       .  A
C1141      H1144   1.082       .  S
C1142      C1166   1.476       .  S
C1142      C1143   1.377       .  A
C1143      H1145   1.083       .  S
N1146      N1147   1.324       .  A
N1146      C1150   1.353       .  A
N1147      C1148   1.340       .  A
C1148      C1149   1.384       .  A
C1148      H1151   1.081       .  S
C1149      C1522   1.497       .  S
C1149      C1150   1.397       .  A
C1150      H1152   1.081       .  S
N1153      N1154   1.318       .  A
N1153      C1157   1.348       .  A
N1153     Cu1161   2.076       .  S
N1154      C1155   1.341       .  A
N1154     Cu1160   2.055       .  S
C1155      C1156   1.383       .  A
C1155      H1158   1.082       .  S
C1156      C2422   1.478       .  S
C1156      C1157   1.388       .  A
C1157      H1159   1.082       .  S
Cu1160     N1163   2.056       .  S
Cu1161     N1171   2.079       .  S
Cu1162     N1164   2.105       .  S
Cu1162     N1170   2.106       .  S
N1163      N1164   1.322       .  A
N1163      C1167   1.337       .  A
N1164      C1165   1.356       .  A
C1165      C1166   1.392       .  A
C1165      H1168   1.082       .  S
C1166      C1167   1.378       .  A
C1167      H1169   1.082       .  S
N1170      N1171   1.325       .  A
N1170      C1174   1.352       .  A
N1171      C1172   1.342       .  A
C1172      C1173   1.384       .  A
C1172      H1175   1.082       .  S
C1173      C1493   1.489       .  S
C1173      C1174   1.391       .  A
C1174      H1176   1.081       .  S
N1177      N1178   1.316       .  A
N1177      C1181   1.344       .  A
N1177     Cu1185   2.059       .  S
N1178      C1179   1.343       .  A
N1178     Cu1184   2.061       .  S
C1179      C1180   1.386       .  A
C1179      H1182   1.082       .  S
C1180      C2502   1.480       .  S
C1180      C1181   1.387       .  A
C1181      H1183   1.082       .  S
Cu1184     N1187   2.061       .  S
Cu1185     N1195   2.060       .  S
Cu1186     N1188   2.119       .  S
Cu1186     N1194   2.120       .  S
N1187      N1188   1.324       .  A
N1187      C1191   1.337       .  A
N1188      C1189   1.358       .  A
C1189      C1190   1.395       .  A
C1189      H1192   1.082       .  S
C1190      C1214   1.480       .  S
C1190      C1191   1.377       .  A
C1191      H1193   1.082       .  S
N1194      N1195   1.325       .  A
N1194      C1198   1.354       .  A
N1195      C1196   1.339       .  A
C1196      C1197   1.380       .  A
C1196      H1199   1.081       .  S
C1197      C1473   1.490       .  S
C1197      C1198   1.396       .  A
C1198      H1200   1.082       .  S
N1201      N1202   1.318       .  A
N1201      C1205   1.344       .  A
N1201     Cu1209   2.065       .  S
N1202      C1203   1.345       .  A
N1202     Cu1208   2.069       .  S
C1203      C1204   1.389       .  A
C1203      H1206   1.082       .  S
C1204      C2662   1.487       .  S
C1204      C1205   1.388       .  A
C1205      H1207   1.081       .  S
Cu1208     N1211   2.068       .  S
Cu1209     N1219   2.067       .  S
Cu1210     N1212   2.112       .  S
Cu1210     N1218   2.112       .  S
N1211      N1212   1.324       .  A
N1211      C1215   1.338       .  A
N1212      C1213   1.357       .  A
C1213      C1214   1.393       .  A
C1213      H1216   1.082       .  S
C1214      C1215   1.379       .  A
C1215      H1217   1.082       .  S
N1218      N1219   1.324       .  A
N1218      C1222   1.351       .  A
N1219      C1220   1.343       .  A
C1220      C1221   1.382       .  A
C1220      H1223   1.082       .  S
C1221      C1453   1.490       .  S
C1221      C1222   1.394       .  A
C1222      H1224   1.081       .  S
C1225      C1433   1.487       .  S
C1225      C1226   1.419       .  A
C1225      C1230   1.417       .  A
C1226      C2262   1.493       .  S
C1226      C1227   1.418       .  A
C1227      C1573   1.495       .  S
C1227      C1228   1.419       .  A
C1228      C2073   1.493       .  S
C1228      C1229   1.418       .  A
C1229      C1482   1.491       .  S
C1229      C1230   1.416       .  A
C1230      C1993   1.491       .  S
C1231      C1462   1.493       .  S
C1231      C1232   1.419       .  A
C1231      C1236   1.421       .  A
C1232      C2313   1.496       .  S
C1232      C1233   1.420       .  A
C1233      C1502   1.490       .  S
C1233      C1234   1.420       .  A
C1234      C2282   1.493       .  S
C1234      C1235   1.417       .  A
C1235      C1542   1.494       .  S
C1235      C1236   1.418       .  A
C1236      C2242   1.492       .  S
C1237      C1653   1.484       .  S
C1237      C1238   1.413       .  A
C1237      C1242   1.413       .  A
C1238      C2213   1.488       .  S
C1238      C1239   1.415       .  A
C1239      C1702   1.490       .  S
C1239      C1240   1.419       .  A
C1240      C2162   1.489       .  S
C1240      C1241   1.419       .  A
C1241      C1513   1.491       .  S
C1241      C1242   1.417       .  A
C1242      C2193   1.489       .  S
C1243      C2302   1.489       .  S
C1243      C1244   1.417       .  A
C1243      C1248   1.418       .  A
C1244      C1733   1.498       .  S
C1244      C1245   1.418       .  A
C1245      C2042   1.486       .  S
C1245      C1246   1.420       .  A
C1246      C1562   1.495       .  S
C1246      C1247   1.420       .  A
C1247      C2122   1.495       .  S
C1247      C1248   1.420       .  A
C1248      C1622   1.490       .  S
N1249      N1250   1.316       .  A
N1249      C1253   1.345       .  A
N1249     Cu1257   2.061       .  S
N1250      C1251   1.345       .  A
N1250     Cu1256   2.070       .  S
C1251      C1252   1.390       .  A
C1251      H1254   1.082       .  S
C1252      C2593   1.486       .  S
C1252      C1253   1.389       .  A
C1253      H1255   1.081       .  S
Cu1256     N1259   2.071       .  S
Cu1257     N1267   2.062       .  S
Cu1258     N1260   2.105       .  S
Cu1258     N1266   2.105       .  S
N1259      N1260   1.325       .  A
N1259      C1263   1.337       .  A
N1260      C1261   1.356       .  A
C1261      C1262   1.391       .  A
C1261      H1264   1.082       .  S
C1262      C1286   1.477       .  S
C1262      C1263   1.378       .  A
C1263      H1265   1.082       .  S
N1266      N1267   1.323       .  A
N1266      C1270   1.352       .  A
N1267      C1268   1.337       .  A
C1268      C1269   1.382       .  A
C1268      H1271   1.081       .  S
C1269      C1413   1.490       .  S
C1269      C1270   1.395       .  A
C1270      H1272   1.081       .  S
N1273      N1274   1.318       .  A
N1273      C1277   1.347       .  A
N1273     Cu1281   2.072       .  S
N1274      C1275   1.342       .  A
N1274     Cu1280   2.059       .  S
C1275      C1276   1.386       .  A
C1275      H1278   1.081       .  S
C1276      C2782   1.484       .  S
C1276      C1277   1.390       .  A
C1277      H1279   1.082       .  S
Cu1280     N1283   2.058       .  S
Cu1281     N1291   2.074       .  S
Cu1282     N1284   2.105       .  S
Cu1282     N1290   2.107       .  S
N1283      N1284   1.322       .  A
N1283      C1287   1.336       .  A
N1284      C1285   1.357       .  A
C1285      C1286   1.393       .  A
C1285      H1288   1.082       .  S
C1286      C1287   1.378       .  A
C1287      H1289   1.082       .  S
N1290      N1291   1.327       .  A
N1290      C1294   1.351       .  A
N1291      C1292   1.343       .  A
C1292      C1293   1.378       .  A
C1292      H1295   1.082       .  S
C1293      C1442   1.477       .  S
C1293      C1294   1.388       .  A
C1294      H1296   1.082       .  S
C1297      C2053   1.490       .  S
C1297      C1298   1.417       .  A
C1297      C1302   1.417       .  A
C1298      C1393   1.485       .  S
C1298      C1299   1.415       .  A
C1299      C2093   1.498       .  S
C1299      C1300   1.416       .  A
C1300      C1422   1.484       .  S
C1300      C1301   1.419       .  A
C1301      C1873   1.493       .  S
C1301      C1302   1.418       .  A
C1302      C1762   1.493       .  S
C1303      C2182   1.490       .  S
C1303      C1304   1.412       .  A
C1303      C1308   1.417       .  A
C1304      C1593   1.489       .  S
C1304      C1305   1.414       .  A
C1305      C1962   1.479       .  S
C1305      C1306   1.411       .  A
C1306      C1722   1.492       .  S
C1306      C1307   1.414       .  A
C1307      C1973   1.488       .  S
C1307      C1308   1.419       .  A
C1308      C1822   1.482       .  S
C1309      C2142   1.487       .  S
C1309      C1310   1.416       .  A
C1309      C1314   1.420       .  A
C1310      C1773   1.492       .  S
C1310      C1311   1.413       .  A
C1311      C2022   1.487       .  S
C1311      C1312   1.415       .  A
C1312      C1673   1.493       .  S
C1312      C1313   1.421       .  A
C1313      C1913   1.493       .  S
C1313      C1314   1.422       .  A
C1314      C1642   1.493       .  S
N1315      N1316   1.317       .  A
N1315      C1319   1.344       .  A
N1315     Cu1323   2.060       .  S
N1316      C1317   1.344       .  A
N1316     Cu1322   2.067       .  S
C1317      C1318   1.388       .  A
C1317      H1320   1.081       .  S
C1318      C2402   1.482       .  S
C1318      C1319   1.387       .  A
C1319      H1321   1.082       .  S
Cu1322     N1325   2.066       .  S
Cu1323     N1333   2.061       .  S
Cu1324     N1326   2.106       .  S
Cu1324     N1332   2.108       .  S
N1325      N1326   1.323       .  A
N1325      C1329   1.337       .  A
N1326      C1327   1.356       .  A
C1327      C1328   1.392       .  A
C1327      H1330   1.082       .  S
C1328      C1352   1.476       .  S
C1328      C1329   1.379       .  A
C1329      H1331   1.082       .  S
N1332      N1333   1.324       .  A
N1332      C1336   1.352       .  A
N1333      C1334   1.340       .  A
C1334      C1335   1.380       .  A
C1334      H1337   1.081       .  S
C1335      C1382   1.486       .  S
C1335      C1336   1.393       .  A
C1336      H1338   1.082       .  S
N1339      N1340   1.316       .  A
N1339      C1343   1.347       .  A
N1339     Cu1347   2.064       .  S
N1340      C1341   1.338       .  A
N1340     Cu1346   2.047       .  S
C1341      C1342   1.384       .  A
C1341      H1344   1.081       .  S
C1342      C2482   1.480       .  S
C1342      C1343   1.390       .  A
C1343      H1345   1.082       .  S
Cu1346     N1349   2.046       .  S
Cu1347     N1357   2.067       .  S
Cu1348     N1350   2.108       .  S
Cu1348     N1356   2.111       .  S
N1349      N1350   1.321       .  A
N1349      C1353   1.335       .  A
N1350      C1351   1.357       .  A
C1351      C1352   1.394       .  A
C1351      H1354   1.082       .  S
C1352      C1353   1.376       .  A
C1353      H1355   1.082       .  S
N1356      N1357   1.326       .  A
N1356      C1360   1.352       .  A
N1357      C1358   1.340       .  A
C1358      C1359   1.380       .  A
C1358      H1361   1.082       .  S
C1359      C1402   1.484       .  S
C1359      C1360   1.391       .  A
C1360      H1362   1.081       .  S
C1363      C1793   1.492       .  S
C1363      C1364   1.417       .  A
C1363      C1368   1.418       .  A
C1364      C1942   1.491       .  S
C1364      C1365   1.417       .  A
C1365      C1373   1.489       .  S
C1365      C1366   1.418       .  A
C1366      C1893   1.494       .  S
C1366      C1367   1.417       .  A
C1367      C1833   1.490       .  S
C1367      C1368   1.418       .  A
C1368      C1862   1.488       .  S
C1369      C1370   1.405       .  A
C1369      C1374   1.398       .  A
C1369      H1379   1.083       .  S
C1370      C1375   1.490       .  S
C1370      C1371   1.412       .  A
C1371      C1372   1.401       .  A
C1371      F1376   1.357       .  S
C1372      C1373   1.402       .  A
C1372      H1377   1.083       .  S
C1373      C1374   1.405       .  A
C1374      F1378   1.357       .  S
C1375      C1380   1.411       .  A
C1375      C1384   1.403       .  A
C1380      C1381   1.403       .  A
C1380      F1385   1.357       .  S
C1381      C1382   1.404       .  A
C1381      H1386   1.083       .  S
C1382      C1383   1.410       .  A
C1383      C1384   1.397       .  A
C1383      F1387   1.357       .  S
C1384      H1388   1.083       .  S
C1389      C1390   1.407       .  A
C1389      C1394   1.398       .  A
C1389      H1399   1.083       .  S
C1390      C1395   1.481       .  S
C1390      C1391   1.405       .  A
C1391      C1392   1.398       .  A
C1391      F1396   1.357       .  S
C1392      C1393   1.404       .  A
C1392      H1397   1.083       .  S
C1393      C1394   1.402       .  A
C1394      F1398   1.357       .  S
C1395      C1400   1.403       .  A
C1395      C1404   1.406       .  A
C1400      C1401   1.395       .  A
C1400      F1405   1.358       .  S
C1401      C1402   1.407       .  A
C1401      H1406   1.083       .  S
C1402      C1403   1.408       .  A
C1403      C1404   1.403       .  A
C1403      F1407   1.357       .  S
C1404      H1408   1.083       .  S
C1409      C1410   1.408       .  A
C1409      C1414   1.403       .  A
C1409      H1419   1.083       .  S
C1410      C1415   1.487       .  S
C1410      C1411   1.404       .  A
C1411      C1412   1.394       .  A
C1411      F1416   1.358       .  S
C1412      C1413   1.408       .  A
C1412      H1417   1.081       .  S
C1413      C1414   1.409       .  A
C1414      F1418   1.356       .  S
C1415      C1420   1.408       .  A
C1415      C1424   1.409       .  A
C1420      C1421   1.396       .  A
C1420      F1425   1.357       .  S
C1421      C1422   1.402       .  A
C1421      H1426   1.083       .  S
C1422      C1423   1.402       .  A
C1423      C1424   1.398       .  A
C1423      F1427   1.357       .  S
C1424      H1428   1.083       .  S
C1429      C1430   1.405       .  A
C1429      C1434   1.399       .  A
C1429      H1439   1.083       .  S
C1430      C1435   1.490       .  S
C1430      C1431   1.412       .  A
C1431      C1432   1.401       .  A
C1431      F1436   1.357       .  S
C1432      C1433   1.401       .  A
C1432      H1437   1.083       .  S
C1433      C1434   1.405       .  A
C1434      F1438   1.357       .  S
C1435      C1440   1.409       .  A
C1435      C1444   1.408       .  A
C1440      C1441   1.399       .  A
C1440      F1445   1.358       .  S
C1441      C1442   1.403       .  A
C1441      H1446   1.083       .  S
C1442      C1443   1.404       .  A
C1443      C1444   1.402       .  A
C1443      F1447   1.357       .  S
C1444      H1448   1.083       .  S
C1449      C1450   1.406       .  A
C1449      C1454   1.403       .  A
C1449      H1459   1.083       .  S
C1450      C1455   1.490       .  S
C1450      C1451   1.407       .  A
C1451      C1452   1.400       .  A
C1451      F1456   1.358       .  S
C1452      C1453   1.408       .  A
C1452      H1457   1.083       .  S
C1453      C1454   1.408       .  A
C1454      F1458   1.356       .  S
C1455      C1460   1.408       .  A
C1455      C1464   1.407       .  A
C1460      C1461   1.401       .  A
C1460      F1465   1.357       .  S
C1461      C1462   1.404       .  A
C1461      H1466   1.083       .  S
C1462      C1463   1.405       .  A
C1463      C1464   1.401       .  A
C1463      F1467   1.357       .  S
C1464      H1468   1.083       .  S
C1469      C1470   1.401       .  A
C1469      C1474   1.397       .  A
C1469      H1479   1.084       .  S
C1470      C1475   1.487       .  S
C1470      C1471   1.409       .  A
C1471      C1472   1.405       .  A
C1471      F1476   1.357       .  S
C1472      C1473   1.406       .  A
C1472      H1477   1.083       .  S
C1473      C1474   1.413       .  A
C1474      F1478   1.357       .  S
C1475      C1480   1.410       .  A
C1475      C1484   1.403       .  A
C1480      C1481   1.401       .  A
C1480      F1485   1.357       .  S
C1481      C1482   1.403       .  A
C1481      H1486   1.083       .  S
C1482      C1483   1.405       .  A
C1483      C1484   1.398       .  A
C1483      F1487   1.357       .  S
C1484      H1488   1.083       .  S
C1489      C1490   1.408       .  A
C1489      C1494   1.406       .  A
C1489      H1499   1.083       .  S
C1490      C1495   1.490       .  S
C1490      C1491   1.405       .  A
C1491      C1492   1.396       .  A
C1491      F1496   1.358       .  S
C1492      C1493   1.406       .  A
C1492      H1497   1.082       .  S
C1493      C1494   1.410       .  A
C1494      F1498   1.357       .  S
C1495      C1500   1.407       .  A
C1495      C1504   1.408       .  A
C1500      C1501   1.401       .  A
C1500      F1505   1.357       .  S
C1501      C1502   1.405       .  A
C1501      H1506   1.083       .  S
C1502      C1503   1.404       .  A
C1503      C1504   1.399       .  A
C1503      F1507   1.357       .  S
C1504      H1508   1.083       .  S
C1509      C1510   1.410       .  A
C1509      C1514   1.402       .  A
C1509      H1519   1.083       .  S
C1510      C1515   1.494       .  S
C1510      C1511   1.409       .  A
C1511      C1512   1.399       .  A
C1511      F1516   1.357       .  S
C1512      C1513   1.403       .  A
C1512      H1517   1.083       .  S
C1513      C1514   1.403       .  A
C1514      F1518   1.357       .  S
C1515      C1520   1.406       .  A
C1515      C1524   1.409       .  A
C1520      C1521   1.396       .  A
C1520      F1525   1.358       .  S
C1521      C1522   1.409       .  A
C1521      H1526   1.081       .  S
C1522      C1523   1.410       .  A
C1523      C1524   1.406       .  A
C1523      F1527   1.356       .  S
C1524      H1528   1.083       .  S
C1529      C1530   1.406       .  A
C1529      C1534   1.404       .  A
C1529      H1539   1.083       .  S
C1530      C1535   1.489       .  S
C1530      C1531   1.406       .  A
C1531      C1532   1.399       .  A
C1531      F1536   1.358       .  S
C1532      C1533   1.407       .  A
C1532      H1537   1.083       .  S
C1533      C1534   1.409       .  A
C1534      F1538   1.356       .  S
C1535      C1540   1.407       .  A
C1535      C1544   1.407       .  A
C1540      C1541   1.401       .  A
C1540      F1545   1.357       .  S
C1541      C1542   1.405       .  A
C1541      H1546   1.083       .  S
C1542      C1543   1.405       .  A
C1543      C1544   1.401       .  A
C1543      F1547   1.357       .  S
C1544      H1548   1.083       .  S
C1549      C1550   1.404       .  A
C1549      C1554   1.399       .  A
C1549      H1559   1.083       .  S
C1550      C1555   1.494       .  S
C1550      C1551   1.412       .  A
C1551      C1552   1.405       .  A
C1551      F1556   1.357       .  S
C1552      C1553   1.404       .  A
C1552      H1557   1.083       .  S
C1553      C1554   1.410       .  A
C1554      F1558   1.357       .  S
C1555      C1560   1.412       .  A
C1555      C1564   1.405       .  A
C1560      C1561   1.404       .  A
C1560      F1565   1.358       .  S
C1561      C1562   1.403       .  A
C1561      H1566   1.083       .  S
C1562      C1563   1.406       .  A
C1563      C1564   1.400       .  A
C1563      F1567   1.357       .  S
C1564      H1568   1.083       .  S
C1569      C1570   1.408       .  A
C1569      C1574   1.399       .  A
C1569      H1579   1.083       .  S
C1570      C1575   1.493       .  S
C1570      C1571   1.408       .  A
C1571      C1572   1.402       .  A
C1571      F1576   1.357       .  S
C1572      C1573   1.406       .  A
C1572      H1577   1.083       .  S
C1573      C1574   1.404       .  A
C1574      F1578   1.357       .  S
C1575      C1580   1.405       .  A
C1575      C1584   1.410       .  A
C1580      C1581   1.395       .  A
C1580      F1585   1.357       .  S
C1581      C1582   1.406       .  A
C1581      H1586   1.082       .  S
C1582      C1583   1.409       .  A
C1583      C1584   1.408       .  A
C1583      F1587   1.357       .  S
C1584      H1588   1.083       .  S
C1589      C1590   1.404       .  A
C1589      C1594   1.400       .  A
C1589      H1599   1.083       .  S
C1590      C1595   1.488       .  S
C1590      C1591   1.410       .  A
C1591      C1592   1.401       .  A
C1591      F1596   1.357       .  S
C1592      C1593   1.402       .  A
C1592      H1597   1.083       .  S
C1593      C1594   1.405       .  A
C1594      F1598   1.357       .  S
C1595      C1600   1.409       .  A
C1595      C1604   1.402       .  A
C1600      C1601   1.406       .  A
C1600      F1605   1.357       .  S
C1601      C1602   1.407       .  A
C1601      H1606   1.083       .  S
C1602      C1603   1.410       .  A
C1603      C1604   1.397       .  A
C1603      F1607   1.357       .  S
C1604      H1608   1.083       .  S
C1609      C1610   1.407       .  A
C1609      C1614   1.404       .  A
C1609      H1619   1.083       .  S
C1610      C1615   1.495       .  S
C1610      C1611   1.407       .  A
C1611      C1612   1.400       .  A
C1611      F1616   1.358       .  S
C1612      C1613   1.409       .  A
C1612      H1617   1.082       .  S
C1613      C1614   1.410       .  A
C1614      F1618   1.356       .  S
C1615      C1620   1.410       .  A
C1615      C1624   1.410       .  A
C1620      C1621   1.401       .  A
C1620      F1625   1.357       .  S
C1621      C1622   1.403       .  A
C1621      H1626   1.083       .  S
C1622      C1623   1.403       .  A
C1623      C1624   1.402       .  A
C1623      F1627   1.357       .  S
C1624      H1628   1.083       .  S
C1629      C1630   1.409       .  A
C1629      C1634   1.407       .  A
C1629      H1639   1.083       .  S
C1630      C1635   1.496       .  S
C1630      C1631   1.408       .  A
C1631      C1632   1.401       .  A
C1631      F1636   1.357       .  S
C1632      C1633   1.405       .  A
C1632      H1637   1.083       .  S
C1633      C1634   1.407       .  A
C1634      F1638   1.357       .  S
C1635      C1640   1.412       .  A
C1635      C1644   1.406       .  A
C1640      C1641   1.405       .  A
C1640      F1645   1.357       .  S
C1641      C1642   1.402       .  A
C1641      H1646   1.083       .  S
C1642      C1643   1.406       .  A
C1643      C1644   1.402       .  A
C1643      F1647   1.357       .  S
C1644      H1648   1.083       .  S
C1649      C1650   1.407       .  A
C1649      C1654   1.399       .  A
C1649      H1659   1.083       .  S
C1650      C1655   1.481       .  S
C1650      C1651   1.405       .  A
C1651      C1652   1.399       .  A
C1651      F1656   1.357       .  S
C1652      C1653   1.404       .  A
C1652      H1657   1.083       .  S
C1653      C1654   1.401       .  A
C1654      F1658   1.357       .  S
C1655      C1660   1.403       .  A
C1655      C1664   1.407       .  A
C1660      C1661   1.395       .  A
C1660      F1665   1.358       .  S
C1661      C1662   1.405       .  A
C1661      H1666   1.083       .  S
C1662      C1663   1.407       .  A
C1663      C1664   1.405       .  A
C1663      F1667   1.357       .  S
C1664      H1668   1.083       .  S
C1669      C1670   1.405       .  A
C1669      C1674   1.400       .  A
C1669      H1679   1.083       .  S
C1670      C1675   1.493       .  S
C1670      C1671   1.412       .  A
C1671      C1672   1.403       .  A
C1671      F1676   1.357       .  S
C1672      C1673   1.403       .  A
C1672      H1677   1.083       .  S
C1673      C1674   1.406       .  A
C1674      F1678   1.357       .  S
C1675      C1680   1.411       .  A
C1675      C1684   1.402       .  A
C1680      C1681   1.407       .  A
C1680      F1685   1.357       .  S
C1681      C1682   1.406       .  A
C1681      H1686   1.083       .  S
C1682      C1683   1.412       .  A
C1683      C1684   1.398       .  A
C1683      F1687   1.357       .  S
C1684      H1688   1.083       .  S
C1689      C1690   1.403       .  A
C1689      C1694   1.397       .  A
C1689      H1699   1.083       .  S
C1690      C1695   1.494       .  S
C1690      C1691   1.412       .  A
C1691      C1692   1.408       .  A
C1691      F1696   1.357       .  S
C1692      C1693   1.405       .  A
C1692      H1697   1.083       .  S
C1693      C1694   1.409       .  A
C1694      F1698   1.357       .  S
C1695      C1700   1.413       .  A
C1695      C1704   1.406       .  A
C1700      C1701   1.401       .  A
C1700      F1705   1.357       .  S
C1701      C1702   1.401       .  A
C1701      H1706   1.083       .  S
C1702      C1703   1.404       .  A
C1703      C1704   1.400       .  A
C1703      F1707   1.357       .  S
C1704      H1708   1.083       .  S
C1709      C1710   1.404       .  A
C1709      C1714   1.399       .  A
C1709      H1719   1.083       .  S
C1710      C1715   1.494       .  S
C1710      C1711   1.410       .  A
C1711      C1712   1.405       .  A
C1711      F1716   1.357       .  S
C1712      C1713   1.406       .  A
C1712      H1717   1.083       .  S
C1713      C1714   1.411       .  A
C1714      F1718   1.357       .  S
C1715      C1720   1.411       .  A
C1715      C1724   1.407       .  A
C1720      C1721   1.400       .  A
C1720      F1725   1.357       .  S
C1721      C1722   1.401       .  A
C1721      H1726   1.083       .  S
C1722      C1723   1.406       .  A
C1723      C1724   1.402       .  A
C1723      F1727   1.357       .  S
C1724      H1728   1.083       .  S
C1729      C1730   1.406       .  A
C1729      C1734   1.405       .  A
C1729      H1739   1.083       .  S
C1730      C1735   1.497       .  S
C1730      C1731   1.412       .  A
C1731      C1732   1.403       .  A
C1731      F1736   1.357       .  S
C1732      C1733   1.402       .  A
C1732      H1737   1.083       .  S
C1733      C1734   1.408       .  A
C1734      F1738   1.357       .  S
C1735      C1740   1.411       .  A
C1735      C1744   1.404       .  A
C1740      C1741   1.408       .  A
C1740      F1745   1.357       .  S
C1741      C1742   1.407       .  A
C1741      H1746   1.083       .  S
C1742      C1743   1.410       .  A
C1743      C1744   1.400       .  A
C1743      F1747   1.357       .  S
C1744      H1748   1.083       .  S
C1749      C1750   1.405       .  A
C1749      C1754   1.399       .  A
C1749      H1759   1.083       .  S
C1750      C1755   1.494       .  S
C1750      C1751   1.410       .  A
C1751      C1752   1.403       .  A
C1751      F1756   1.357       .  S
C1752      C1753   1.406       .  A
C1752      H1757   1.083       .  S
C1753      C1754   1.410       .  A
C1754      F1758   1.357       .  S
C1755      C1760   1.411       .  A
C1755      C1764   1.407       .  A
C1760      C1761   1.400       .  A
C1760      F1765   1.357       .  S
C1761      C1762   1.402       .  A
C1761      H1766   1.083       .  S
C1762      C1763   1.406       .  A
C1763      C1764   1.401       .  A
C1763      F1767   1.357       .  S
C1764      H1768   1.083       .  S
C1769      C1770   1.404       .  A
C1769      C1774   1.401       .  A
C1769      H1779   1.088       .  S
C1770      C1775   1.492       .  S
C1770      C1771   1.412       .  A
C1771      C1772   1.400       .  A
C1771      F1776   1.357       .  S
C1772      C1773   1.399       .  A
C1772      H1777   1.094       .  S
C1773      C1774   1.406       .  A
C1774      F1778   1.357       .  S
C1775      C1780   1.406       .  A
C1775      C1784   1.410       .  A
C1780      C1781   1.397       .  A
C1780      F1785   1.357       .  S
C1781      C1782   1.404       .  A
C1781      H1786   1.082       .  S
C1782      C1783   1.406       .  A
C1783      C1784   1.407       .  A
C1783      F1787   1.357       .  S
C1784      H1788   1.081       .  S
C1789      C1790   1.409       .  A
C1789      C1794   1.401       .  A
C1789      H1799   1.083       .  S
C1790      C1795   1.492       .  S
C1790      C1791   1.408       .  A
C1791      C1792   1.401       .  A
C1791      F1796   1.357       .  S
C1792      C1793   1.404       .  A
C1792      H1797   1.083       .  S
C1793      C1794   1.404       .  A
C1794      F1798   1.356       .  S
C1795      C1800   1.406       .  A
C1795      C1804   1.409       .  A
C1800      C1801   1.398       .  A
C1800      F1805   1.357       .  S
C1801      C1802   1.407       .  A
C1801      H1806   1.083       .  S
C1802      C1803   1.408       .  A
C1803      C1804   1.406       .  A
C1803      F1807   1.357       .  S
C1804      H1808   1.083       .  S
C1809      C1810   1.408       .  A
C1809      C1814   1.403       .  A
C1809      H1819   1.083       .  S
C1810      C1815   1.489       .  S
C1810      C1811   1.406       .  A
C1811      C1812   1.396       .  A
C1811      F1816   1.358       .  S
C1812      C1813   1.407       .  A
C1812      H1817   1.083       .  S
C1813      C1814   1.407       .  A
C1814      F1818   1.356       .  S
C1815      C1820   1.408       .  A
C1815      C1824   1.409       .  A
C1820      C1821   1.398       .  A
C1820      F1825   1.357       .  S
C1821      C1822   1.402       .  A
C1821      H1826   1.083       .  S
C1822      C1823   1.401       .  A
C1823      C1824   1.399       .  A
C1823      F1827   1.357       .  S
C1824      H1828   1.083       .  S
C1829      C1830   1.406       .  A
C1829      C1834   1.402       .  A
C1829      H1839   1.083       .  S
C1830      C1835   1.492       .  S
C1830      C1831   1.411       .  A
C1831      C1832   1.400       .  A
C1831      F1836   1.357       .  S
C1832      C1833   1.400       .  A
C1832      H1837   1.082       .  S
C1833      C1834   1.406       .  A
C1834      F1838   1.357       .  S
C1835      C1840   1.407       .  A
C1835      C1844   1.409       .  A
C1840      C1841   1.397       .  A
C1840      F1845   1.357       .  S
C1841      C1842   1.404       .  A
C1841      H1846   1.083       .  S
C1842      C1843   1.407       .  A
C1843      C1844   1.406       .  A
C1843      F1847   1.357       .  S
C1844      H1848   1.083       .  S
C1849      C1850   1.404       .  A
C1849      C1854   1.398       .  A
C1849      H1859   1.083       .  S
C1850      C1855   1.491       .  S
C1850      C1851   1.411       .  A
C1851      C1852   1.404       .  A
C1851      F1856   1.357       .  S
C1852      C1853   1.403       .  A
C1852      H1857   1.083       .  S
C1853      C1854   1.408       .  A
C1854      F1858   1.358       .  S
C1855      C1860   1.412       .  A
C1855      C1864   1.405       .  A
C1860      C1861   1.402       .  A
C1860      F1865   1.357       .  S
C1861      C1862   1.401       .  A
C1861      H1866   1.083       .  S
C1862      C1863   1.404       .  A
C1863      C1864   1.398       .  A
C1863      F1867   1.357       .  S
C1864      H1868   1.083       .  S
C1869      C1870   1.408       .  A
C1869      C1874   1.400       .  A
C1869      H1879   1.083       .  S
C1870      C1875   1.491       .  S
C1870      C1871   1.408       .  A
C1871      C1872   1.399       .  A
C1871      F1876   1.357       .  S
C1872      C1873   1.404       .  A
C1872      H1877   1.083       .  S
C1873      C1874   1.405       .  A
C1874      F1878   1.357       .  S
C1875      C1880   1.406       .  A
C1875      C1884   1.407       .  A
C1880      C1881   1.397       .  A
C1880      F1885   1.358       .  S
C1881      C1882   1.409       .  A
C1881      H1886   1.082       .  S
C1882      C1883   1.409       .  A
C1883      C1884   1.404       .  A
C1883      F1887   1.356       .  S
C1884      H1888   1.083       .  S
C1889      C1890   1.406       .  A
C1889      C1894   1.404       .  A
C1889      H1899   1.083       .  S
C1890      C1895   1.492       .  S
C1890      C1891   1.410       .  A
C1891      C1892   1.399       .  A
C1891      F1896   1.357       .  S
C1892      C1893   1.401       .  A
C1892      H1897   1.082       .  S
C1893      C1894   1.407       .  A
C1894      F1898   1.357       .  S
C1895      C1900   1.409       .  A
C1895      C1904   1.404       .  A
C1900      C1901   1.406       .  A
C1900      F1905   1.357       .  S
C1901      C1902   1.407       .  A
C1901      H1906   1.083       .  S
C1902      C1903   1.408       .  A
C1903      C1904   1.398       .  A
C1903      F1907   1.357       .  S
C1904      H1908   1.083       .  S
C1909      C1910   1.408       .  A
C1909      C1914   1.401       .  A
C1909      H1919   1.083       .  S
C1910      C1915   1.493       .  S
C1910      C1911   1.408       .  A
C1911      C1912   1.403       .  A
C1911      F1916   1.357       .  S
C1912      C1913   1.406       .  A
C1912      H1917   1.083       .  S
C1913      C1914   1.403       .  A
C1914      F1918   1.356       .  S
C1915      C1920   1.406       .  A
C1915      C1924   1.407       .  A
C1920      C1921   1.399       .  A
C1920      F1925   1.358       .  S
C1921      C1922   1.408       .  A
C1921      H1926   1.082       .  S
C1922      C1923   1.410       .  A
C1923      C1924   1.406       .  A
C1923      F1927   1.356       .  S
C1924      H1928   1.083       .  S
C1929      C1930   1.404       .  A
C1929      C1934   1.398       .  A
C1929      H1939   1.083       .  S
C1930      C1935   1.495       .  S
C1930      C1931   1.411       .  A
C1931      C1932   1.406       .  A
C1931      F1936   1.357       .  S
C1932      C1933   1.406       .  A
C1932      H1937   1.083       .  S
C1933      C1934   1.412       .  A
C1934      F1938   1.357       .  S
C1935      C1940   1.413       .  A
C1935      C1944   1.406       .  A
C1940      C1941   1.402       .  A
C1940      F1945   1.357       .  S
C1941      C1942   1.401       .  A
C1941      H1946   1.083       .  S
C1942      C1943   1.405       .  A
C1943      C1944   1.401       .  A
C1943      F1947   1.357       .  S
C1944      H1948   1.083       .  S
C1949      C1950   1.400       .  A
C1949      C1954   1.393       .  A
C1949      H1959   1.084       .  S
C1950      C1955   1.477       .  S
C1950      C1951   1.407       .  A
C1951      C1952   1.402       .  A
C1951      F1956   1.357       .  S
C1952      C1953   1.405       .  A
C1952      H1957   1.083       .  S
C1953      C1954   1.409       .  A
C1954      F1958   1.357       .  S
C1955      C1960   1.409       .  A
C1955      C1964   1.402       .  A
C1960      C1961   1.397       .  A
C1960      F1965   1.357       .  S
C1961      C1962   1.400       .  A
C1961      H1966   1.083       .  S
C1962      C1963   1.404       .  A
C1963      C1964   1.395       .  A
C1963      F1967   1.357       .  S
C1964      H1968   1.083       .  S
C1969      C1970   1.409       .  A
C1969      C1974   1.400       .  A
C1969      H1979   1.083       .  S
C1970      C1975   1.488       .  S
C1970      C1971   1.406       .  A
C1971      C1972   1.398       .  A
C1971      F1976   1.357       .  S
C1972      C1973   1.404       .  A
C1972      H1977   1.083       .  S
C1973      C1974   1.403       .  A
C1974      F1978   1.357       .  S
C1975      C1980   1.405       .  A
C1975      C1984   1.408       .  A
C1980      C1981   1.396       .  A
C1980      F1985   1.358       .  S
C1981      C1982   1.407       .  A
C1981      H1986   1.083       .  S
C1982      C1983   1.407       .  A
C1983      C1984   1.404       .  A
C1983      F1987   1.357       .  S
C1984      H1988   1.083       .  S
C1989      C1990   1.407       .  A
C1989      C1994   1.401       .  A
C1989      H1999   1.083       .  S
C1990      C1995   1.490       .  S
C1990      C1991   1.408       .  A
C1991      C1992   1.403       .  A
C1991      F1996   1.357       .  S
C1992      C1993   1.404       .  A
C1992      H1997   1.083       .  S
C1993      C1994   1.404       .  A
C1994      F1998   1.357       .  S
C1995      C2000   1.406       .  A
C1995      C2004   1.407       .  A
C2000      C2001   1.399       .  A
C2000      F2005   1.358       .  S
C2001      C2002   1.407       .  A
C2001      H2006   1.083       .  S
C2002      C2003   1.408       .  A
C2003      C2004   1.405       .  A
C2003      F2007   1.357       .  S
C2004      H2008   1.083       .  S
C2009      C2010   1.403       .  A
C2009      C2014   1.398       .  A
C2009      H2019   1.084       .  S
C2010      C2015   1.486       .  S
C2010      C2011   1.408       .  A
C2011      C2012   1.403       .  A
C2011      F2016   1.357       .  S
C2012      C2013   1.405       .  A
C2012      H2017   1.083       .  S
C2013      C2014   1.410       .  A
C2014      F2018   1.357       .  S
C2015      C2020   1.410       .  A
C2015      C2024   1.404       .  A
C2020      C2021   1.400       .  A
C2020      F2025   1.357       .  S
C2021      C2022   1.401       .  A
C2021      H2026   1.083       .  S
C2022      C2023   1.406       .  A
C2023      C2024   1.399       .  A
C2023      F2027   1.357       .  S
C2024      H2028   1.083       .  S
C2029      C2030   1.409       .  A
C2029      C2034   1.404       .  A
C2029      H2039   1.083       .  S
C2030      C2035   1.492       .  S
C2030      C2031   1.407       .  A
C2031      C2032   1.397       .  A
C2031      F2036   1.358       .  S
C2032      C2033   1.404       .  A
C2032      H2037   1.083       .  S
C2033      C2034   1.406       .  A
C2034      F2038   1.357       .  S
C2035      C2040   1.413       .  A
C2035      C2044   1.405       .  A
C2040      C2041   1.401       .  A
C2040      F2045   1.357       .  S
C2041      C2042   1.401       .  A
C2041      H2046   1.083       .  S
C2042      C2043   1.404       .  A
C2043      C2044   1.399       .  A
C2043      F2047   1.357       .  S
C2044      H2048   1.083       .  S
C2049      C2050   1.409       .  A
C2049      C2054   1.401       .  A
C2049      H2059   1.083       .  S
C2050      C2055   1.490       .  S
C2050      C2051   1.408       .  A
C2051      C2052   1.399       .  A
C2051      F2056   1.357       .  S
C2052      C2053   1.403       .  A
C2052      H2057   1.083       .  S
C2053      C2054   1.403       .  A
C2054      F2058   1.357       .  S
C2055      C2060   1.406       .  A
C2055      C2064   1.408       .  A
C2060      C2061   1.398       .  A
C2060      F2065   1.358       .  S
C2061      C2062   1.408       .  A
C2061      H2066   1.082       .  S
C2062      C2063   1.408       .  A
C2063      C2064   1.404       .  A
C2063      F2067   1.356       .  S
C2064      H2068   1.083       .  S
C2069      C2070   1.407       .  A
C2069      C2074   1.399       .  A
C2069      H2079   1.083       .  S
C2070      C2075   1.486       .  S
C2070      C2071   1.406       .  A
C2071      C2072   1.399       .  A
C2071      F2076   1.357       .  S
C2072      C2073   1.405       .  A
C2072      H2077   1.083       .  S
C2073      C2074   1.405       .  A
C2074      F2078   1.357       .  S
C2075      C2080   1.404       .  A
C2075      C2084   1.407       .  A
C2080      C2081   1.396       .  A
C2080      F2085   1.358       .  S
C2081      C2082   1.407       .  A
C2081      H2086   1.082       .  S
C2082      C2083   1.408       .  A
C2083      C2084   1.404       .  A
C2083      F2087   1.357       .  S
C2084      H2088   1.083       .  S
C2089      C2090   1.409       .  A
C2089      C2094   1.402       .  A
C2089      H2099   1.083       .  S
C2090      C2095   1.495       .  S
C2090      C2091   1.409       .  A
C2091      C2092   1.404       .  A
C2091      F2096   1.357       .  S
C2092      C2093   1.406       .  A
C2092      H2097   1.083       .  S
C2093      C2094   1.404       .  A
C2094      F2098   1.357       .  S
C2095      C2100   1.406       .  A
C2095      C2104   1.409       .  A
C2100      C2101   1.399       .  A
C2100      F2105   1.358       .  S
C2101      C2102   1.408       .  A
C2101      H2106   1.083       .  S
C2102      C2103   1.408       .  A
C2103      C2104   1.408       .  A
C2103      F2107   1.357       .  S
C2104      H2108   1.083       .  S
C2109      C2110   1.409       .  A
C2109      C2114   1.405       .  A
C2109      H2119   1.083       .  S
C2110      C2115   1.499       .  S
C2110      C2111   1.410       .  A
C2111      C2112   1.401       .  A
C2111      F2116   1.358       .  S
C2112      C2113   1.407       .  A
C2112      H2117   1.083       .  S
C2113      C2114   1.408       .  A
C2114      F2118   1.357       .  S
C2115      C2120   1.411       .  A
C2115      C2124   1.409       .  A
C2120      C2121   1.403       .  A
C2120      F2125   1.357       .  S
C2121      C2122   1.404       .  A
C2121      H2126   1.083       .  S
C2122      C2123   1.404       .  A
C2123      C2124   1.402       .  A
C2123      F2127   1.357       .  S
C2124      H2128   1.082       .  S
C2129      C2130   1.408       .  A
C2129      C2134   1.403       .  A
C2129      H2139   1.083       .  S
C2130      C2135   1.492       .  S
C2130      C2131   1.409       .  A
C2131      C2132   1.398       .  A
C2131      F2136   1.357       .  S
C2132      C2133   1.404       .  A
C2132      H2137   1.083       .  S
C2133      C2134   1.406       .  A
C2134      F2138   1.357       .  S
C2135      C2140   1.412       .  A
C2135      C2144   1.406       .  A
C2140      C2141   1.401       .  A
C2140      F2145   1.357       .  S
C2141      C2142   1.401       .  A
C2141      H2146   1.083       .  S
C2142      C2143   1.404       .  A
C2143      C2144   1.400       .  A
C2143      F2147   1.357       .  S
C2144      H2148   1.083       .  S
C2149      C2150   1.403       .  A
C2149      C2154   1.398       .  A
C2149      H2159   1.083       .  S
C2150      C2155   1.490       .  S
C2150      C2151   1.409       .  A
C2151      C2152   1.404       .  A
C2151      F2156   1.357       .  S
C2152      C2153   1.406       .  A
C2152      H2157   1.083       .  S
C2153      C2154   1.410       .  A
C2154      F2158   1.357       .  S
C2155      C2160   1.410       .  A
C2155      C2164   1.406       .  A
C2160      C2161   1.400       .  A
C2160      F2165   1.357       .  S
C2161      C2162   1.401       .  A
C2161      H2166   1.083       .  S
C2162      C2163   1.406       .  A
C2163      C2164   1.401       .  A
C2163      F2167   1.357       .  S
C2164      H2168   1.083       .  S
C2169      C2170   1.408       .  A
C2169      C2174   1.405       .  A
C2169      H2179   1.083       .  S
C2170      C2175   1.492       .  S
C2170      C2171   1.407       .  A
C2171      C2172   1.398       .  A
C2171      F2176   1.358       .  S
C2172      C2173   1.406       .  A
C2172      H2177   1.083       .  S
C2173      C2174   1.408       .  A
C2174      F2178   1.357       .  S
C2175      C2180   1.411       .  A
C2175      C2184   1.406       .  A
C2180      C2181   1.401       .  A
C2180      F2185   1.357       .  S
C2181      C2182   1.401       .  A
C2181      H2186   1.083       .  S
C2182      C2183   1.406       .  A
C2183      C2184   1.401       .  A
C2183      F2187   1.357       .  S
C2184      H2188   1.083       .  S
C2189      C2190   1.405       .  A
C2189      C2194   1.399       .  A
C2189      H2199   1.083       .  S
C2190      C2195   1.489       .  S
C2190      C2191   1.411       .  A
C2191      C2192   1.401       .  A
C2191      F2196   1.358       .  S
C2192      C2193   1.402       .  A
C2192      H2197   1.083       .  S
C2193      C2194   1.404       .  A
C2194      F2198   1.357       .  S
C2195      C2200   1.410       .  A
C2195      C2204   1.403       .  A
C2200      C2201   1.403       .  A
C2200      F2205   1.357       .  S
C2201      C2202   1.405       .  A
C2201      H2206   1.083       .  S
C2202      C2203   1.410       .  A
C2203      C2204   1.398       .  A
C2203      F2207   1.357       .  S
C2204      H2208   1.083       .  S
C2209      C2210   1.407       .  A
C2209      C2214   1.400       .  A
C2209      H2219   1.083       .  S
C2210      C2215   1.494       .  S
C2210      C2211   1.412       .  A
C2211      C2212   1.400       .  A
C2211      F2216   1.357       .  S
C2212      C2213   1.400       .  A
C2212      H2217   1.083       .  S
C2213      C2214   1.404       .  A
C2214      F2218   1.357       .  S
C2215      C2220   1.409       .  A
C2215      C2224   1.409       .  A
C2220      C2221   1.399       .  A
C2220      F2225   1.357       .  S
C2221      C2222   1.404       .  A
C2221      H2226   1.083       .  S
C2222      C2223   1.405       .  A
C2223      C2224   1.403       .  A
C2223      F2227   1.357       .  S
C2224      H2228   1.083       .  S
C2229      C2230   1.406       .  A
C2229      C2234   1.403       .  A
C2229      H2239   1.083       .  S
C2230      C2235   1.488       .  S
C2230      C2231   1.404       .  A
C2231      C2232   1.396       .  A
C2231      F2236   1.358       .  S
C2232      C2233   1.411       .  A
C2232      H2237   1.081       .  S
C2233      C2234   1.410       .  A
C2234      F2238   1.355       .  S
C2235      C2240   1.407       .  A
C2235      C2244   1.408       .  A
C2240      C2241   1.398       .  A
C2240      F2245   1.357       .  S
C2241      C2242   1.404       .  A
C2241      H2246   1.083       .  S
C2242      C2243   1.405       .  A
C2243      C2244   1.400       .  A
C2243      F2247   1.357       .  S
C2244      H2248   1.083       .  S
C2249      C2250   1.403       .  A
C2249      C2254   1.397       .  A
C2249      H2259   1.083       .  S
C2250      C2255   1.490       .  S
C2250      C2251   1.410       .  A
C2251      C2252   1.404       .  A
C2251      F2256   1.357       .  S
C2252      C2253   1.406       .  A
C2252      H2257   1.083       .  S
C2253      C2254   1.410       .  A
C2254      F2258   1.357       .  S
C2255      C2260   1.411       .  A
C2255      C2264   1.405       .  A
C2260      C2261   1.401       .  A
C2260      F2265   1.358       .  S
C2261      C2262   1.403       .  A
C2261      H2266   1.083       .  S
C2262      C2263   1.406       .  A
C2263      C2264   1.400       .  A
C2263      F2267   1.357       .  S
C2264      H2268   1.083       .  S
C2269      C2270   1.403       .  A
C2269      C2274   1.399       .  A
C2269      H2279   1.083       .  S
C2270      C2275   1.492       .  S
C2270      C2271   1.411       .  A
C2271      C2272   1.404       .  A
C2271      F2276   1.357       .  S
C2272      C2273   1.405       .  A
C2272      H2277   1.083       .  S
C2273      C2274   1.411       .  A
C2274      F2278   1.357       .  S
C2275      C2280   1.412       .  A
C2275      C2284   1.405       .  A
C2280      C2281   1.402       .  A
C2280      F2285   1.357       .  S
C2281      C2282   1.402       .  A
C2281      H2286   1.083       .  S
C2282      C2283   1.406       .  A
C2283      C2284   1.399       .  A
C2283      F2287   1.357       .  S
C2284      H2288   1.083       .  S
C2289      C2290   1.402       .  A
C2289      C2294   1.398       .  A
C2289      H2299   1.084       .  S
C2290      C2295   1.487       .  S
C2290      C2291   1.409       .  A
C2291      C2292   1.406       .  A
C2291      F2296   1.357       .  S
C2292      C2293   1.406       .  A
C2292      H2297   1.083       .  S
C2293      C2294   1.410       .  A
C2294      F2298   1.357       .  S
C2295      C2300   1.410       .  A
C2295      C2304   1.404       .  A
C2300      C2301   1.402       .  A
C2300      F2305   1.357       .  S
C2301      C2302   1.402       .  A
C2301      H2306   1.083       .  S
C2302      C2303   1.406       .  A
C2303      C2304   1.400       .  A
C2303      F2307   1.357       .  S
C2304      H2308   1.083       .  S
C2309      C2310   1.405       .  A
C2309      C2314   1.402       .  A
C2309      H2319   1.083       .  S
C2310      C2315   1.495       .  S
C2310      C2311   1.412       .  A
C2311      C2312   1.404       .  A
C2311      F2316   1.357       .  S
C2312      C2313   1.403       .  A
C2312      H2317   1.083       .  S
C2313      C2314   1.406       .  A
C2314      F2318   1.357       .  S
C2315      C2320   1.411       .  A
C2315      C2324   1.403       .  A
C2320      C2321   1.407       .  A
C2320      F2325   1.357       .  S
C2321      C2322   1.406       .  A
C2321      H2326   1.083       .  S
C2322      C2323   1.413       .  A
C2323      C2324   1.400       .  A
C2323      F2327   1.357       .  S
C2324      H2328   1.083       .  S
C2329      C2330   1.405       .  A
C2329      C2334   1.401       .  A
C2329      H2339   1.083       .  S
C2330      C2335   1.484       .  S
C2330      C2331   1.406       .  A
C2331      C2332   1.395       .  A
C2331      F2336   1.358       .  S
C2332      C2333   1.406       .  A
C2332      H2337   1.083       .  S
C2333      C2334   1.409       .  A
C2334      F2338   1.357       .  S
C2335      C2340   1.408       .  A
C2335      C2344   1.406       .  A
C2340      C2341   1.396       .  A
C2340      F2345   1.358       .  S
C2341      C2342   1.402       .  A
C2341      H2346   1.083       .  S
C2342      C2343   1.404       .  A
C2343      C2344   1.401       .  A
C2343      F2347   1.357       .  S
C2344      H2348   1.083       .  S
C2349      C2350   1.403       .  A
C2349      C2354   1.397       .  A
C2349      H2359   1.083       .  S
C2350      C2355   1.487       .  S
C2350      C2351   1.407       .  A
C2351      C2352   1.403       .  A
C2351      F2356   1.357       .  S
C2352      C2353   1.409       .  A
C2352      H2357   1.083       .  S
C2353      C2354   1.411       .  A
C2354      F2358   1.357       .  S
C2355      C2360   1.406       .  A
C2355      C2364   1.403       .  A
C2360      C2361   1.402       .  A
C2360      F2365   1.357       .  S
C2361      C2362   1.408       .  A
C2361      H2366   1.082       .  S
C2362      C2363   1.411       .  A
C2363      C2364   1.397       .  A
C2363      F2367   1.356       .  S
C2364      H2368   1.084       .  S
C2369      C2370   1.403       .  A
C2369      C2374   1.397       .  A
C2369      H2379   1.083       .  S
C2370      C2375   1.487       .  S
C2370      C2371   1.407       .  A
C2371      C2372   1.403       .  A
C2371      F2376   1.357       .  S
C2372      C2373   1.409       .  A
C2372      H2377   1.083       .  S
C2373      C2374   1.411       .  A
C2374      F2378   1.357       .  S
C2375      C2380   1.406       .  A
C2375      C2384   1.404       .  A
C2380      C2381   1.398       .  A
C2380      F2385   1.358       .  S
C2381      C2382   1.406       .  A
C2381      H2386   1.083       .  S
C2382      C2383   1.411       .  A
C2383      C2384   1.402       .  A
C2383      F2387   1.356       .  S
C2384      H2388   1.083       .  S
C2389      C2390   1.405       .  A
C2389      C2394   1.399       .  A
C2389      H2399   1.083       .  S
C2390      C2395   1.483       .  S
C2390      C2391   1.405       .  A
C2391      C2392   1.396       .  A
C2391      F2396   1.358       .  S
C2392      C2393   1.407       .  A
C2392      H2397   1.083       .  S
C2393      C2394   1.409       .  A
C2394      F2398   1.357       .  S
C2395      C2400   1.406       .  A
C2395      C2404   1.405       .  A
C2400      C2401   1.397       .  A
C2400      F2405   1.358       .  S
C2401      C2402   1.405       .  A
C2401      H2406   1.083       .  S
C2402      C2403   1.408       .  A
C2403      C2404   1.399       .  A
C2403      F2407   1.357       .  S
C2404      H2408   1.083       .  S
C2409      C2410   1.401       .  A
C2409      C2414   1.393       .  A
C2409      H2419   1.084       .  S
C2410      C2415   1.477       .  S
C2410      C2411   1.405       .  A
C2411      C2412   1.401       .  A
C2411      F2416   1.357       .  S
C2412      C2413   1.408       .  A
C2412      H2417   1.083       .  S
C2413      C2414   1.410       .  A
C2414      F2418   1.357       .  S
C2415      C2420   1.404       .  A
C2415      C2424   1.404       .  A
C2420      C2421   1.395       .  A
C2420      F2425   1.358       .  S
C2421      C2422   1.404       .  A
C2421      H2426   1.083       .  S
C2422      C2423   1.407       .  A
C2423      C2424   1.400       .  A
C2423      F2427   1.357       .  S
C2424      H2428   1.083       .  S
C2429      C2430   1.404       .  A
C2429      C2434   1.399       .  A
C2429      H2439   1.083       .  S
C2430      C2435   1.487       .  S
C2430      C2431   1.407       .  A
C2431      C2432   1.400       .  A
C2431      F2436   1.357       .  S
C2432      C2433   1.407       .  A
C2432      H2437   1.083       .  S
C2433      C2434   1.411       .  A
C2434      F2438   1.357       .  S
C2435      C2440   1.406       .  A
C2435      C2444   1.405       .  A
C2440      C2441   1.398       .  A
C2440      F2445   1.358       .  S
C2441      C2442   1.407       .  A
C2441      H2446   1.083       .  S
C2442      C2443   1.409       .  A
C2443      C2444   1.401       .  A
C2443      F2447   1.356       .  S
C2444      H2448   1.083       .  S
C2449      C2450   1.404       .  A
C2449      C2454   1.401       .  A
C2449      H2459   1.083       .  S
C2450      C2455   1.486       .  S
C2450      C2451   1.406       .  A
C2451      C2452   1.399       .  A
C2451      F2456   1.358       .  S
C2452      C2453   1.408       .  A
C2452      H2457   1.083       .  S
C2453      C2454   1.411       .  A
C2454      F2458   1.357       .  S
C2455      C2460   1.406       .  A
C2455      C2464   1.403       .  A
C2460      C2461   1.401       .  A
C2460      F2465   1.357       .  S
C2461      C2462   1.407       .  A
C2461      H2466   1.082       .  S
C2462      C2463   1.411       .  A
C2463      C2464   1.400       .  A
C2463      F2467   1.357       .  S
C2464      H2468   1.083       .  S
C2469      C2470   1.402       .  A
C2469      C2474   1.397       .  A
C2469      H2479   1.083       .  S
C2470      C2475   1.479       .  S
C2470      C2471   1.407       .  A
C2471      C2472   1.395       .  A
C2471      F2476   1.358       .  S
C2472      C2473   1.404       .  A
C2472      H2477   1.083       .  S
C2473      C2474   1.408       .  A
C2474      F2478   1.357       .  S
C2475      C2480   1.407       .  A
C2475      C2484   1.401       .  A
C2480      C2481   1.400       .  A
C2480      F2485   1.358       .  S
C2481      C2482   1.406       .  A
C2481      H2486   1.083       .  S
C2482      C2483   1.409       .  A
C2483      C2484   1.392       .  A
C2483      F2487   1.356       .  S
C2484      H2488   1.083       .  S
C2489      C2490   1.404       .  A
C2489      C2494   1.399       .  A
C2489      H2499   1.083       .  S
C2490      C2495   1.483       .  S
C2490      C2491   1.406       .  A
C2491      C2492   1.398       .  A
C2491      F2496   1.358       .  S
C2492      C2493   1.408       .  A
C2492      H2497   1.083       .  S
C2493      C2494   1.410       .  A
C2494      F2498   1.357       .  S
C2495      C2500   1.406       .  A
C2495      C2504   1.405       .  A
C2500      C2501   1.399       .  A
C2500      F2505   1.357       .  S
C2501      C2502   1.405       .  A
C2501      H2506   1.083       .  S
C2502      C2503   1.407       .  A
C2503      C2504   1.397       .  A
C2503      F2507   1.357       .  S
C2504      H2508   1.083       .  S
C2509      C2510   1.404       .  A
C2509      C2514   1.403       .  A
C2509      H2519   1.083       .  S
C2510      C2515   1.485       .  S
C2510      C2511   1.405       .  A
C2511      C2512   1.397       .  A
C2511      F2516   1.358       .  S
C2512      C2513   1.407       .  A
C2512      H2517   1.083       .  S
C2513      C2514   1.412       .  A
C2514      F2518   1.357       .  S
C2515      C2520   1.406       .  A
C2515      C2524   1.403       .  A
C2520      C2521   1.399       .  A
C2520      F2525   1.358       .  S
C2521      C2522   1.406       .  A
C2521      H2526   1.083       .  S
C2522      C2523   1.412       .  A
C2523      C2524   1.401       .  A
C2523      F2527   1.356       .  S
C2524      H2528   1.083       .  S
C2529      C2530   1.403       .  A
C2529      C2534   1.399       .  A
C2529      H2539   1.083       .  S
C2530      C2535   1.481       .  S
C2530      C2531   1.405       .  A
C2531      C2532   1.398       .  A
C2531      F2536   1.358       .  S
C2532      C2533   1.407       .  A
C2532      H2537   1.083       .  S
C2533      C2534   1.410       .  A
C2534      F2538   1.357       .  S
C2535      C2540   1.404       .  A
C2535      C2544   1.402       .  A
C2540      C2541   1.397       .  A
C2540      F2545   1.357       .  S
C2541      C2542   1.407       .  A
C2541      H2546   1.082       .  S
C2542      C2543   1.412       .  A
C2543      C2544   1.399       .  A
C2543      F2547   1.356       .  S
C2544      H2548   1.083       .  S
C2549      C2550   1.401       .  A
C2549      C2554   1.397       .  A
C2549      H2559   1.084       .  S
C2550      C2555   1.482       .  S
C2550      C2551   1.405       .  A
C2551      C2552   1.403       .  A
C2551      F2556   1.357       .  S
C2552      C2553   1.409       .  A
C2552      H2557   1.083       .  S
C2553      C2554   1.411       .  A
C2554      F2558   1.357       .  S
C2555      C2560   1.405       .  A
C2555      C2564   1.402       .  A
C2560      C2561   1.403       .  A
C2560      F2565   1.358       .  S
C2561      C2562   1.409       .  A
C2561      H2566   1.082       .  S
C2562      C2563   1.410       .  A
C2563      C2564   1.399       .  A
C2563      F2567   1.356       .  S
C2564      H2568   1.083       .  S
C2569      C2570   1.403       .  A
C2569      C2574   1.400       .  A
C2569      H2579   1.083       .  S
C2570      C2575   1.475       .  S
C2570      C2571   1.402       .  A
C2571      C2572   1.391       .  A
C2571      F2576   1.358       .  S
C2572      C2573   1.406       .  A
C2572      H2577   1.083       .  S
C2573      C2574   1.410       .  A
C2574      F2578   1.357       .  S
C2575      C2580   1.404       .  A
C2575      C2584   1.402       .  A
C2580      C2581   1.398       .  A
C2580      F2585   1.358       .  S
C2581      C2582   1.407       .  A
C2581      H2586   1.082       .  S
C2582      C2583   1.408       .  A
C2583      C2584   1.394       .  A
C2583      F2587   1.356       .  S
C2584      H2588   1.084       .  S
C2589      C2590   1.403       .  A
C2589      C2594   1.400       .  A
C2589      H2599   1.083       .  S
C2590      C2595   1.483       .  S
C2590      C2591   1.406       .  A
C2591      C2592   1.399       .  A
C2591      F2596   1.358       .  S
C2592      C2593   1.406       .  A
C2592      H2597   1.083       .  S
C2593      C2594   1.411       .  A
C2594      F2598   1.356       .  S
C2595      C2600   1.406       .  A
C2595      C2604   1.401       .  A
C2600      C2601   1.403       .  A
C2600      F2605   1.357       .  S
C2601      C2602   1.408       .  A
C2601      H2606   1.083       .  S
C2602      C2603   1.411       .  A
C2603      C2604   1.396       .  A
C2603      F2607   1.358       .  S
C2604      H2608   1.084       .  S
C2609      C2610   1.404       .  A
C2609      C2614   1.400       .  A
C2609      H2619   1.083       .  S
C2610      C2615   1.485       .  S
C2610      C2611   1.408       .  A
C2611      C2612   1.397       .  A
C2611      F2616   1.357       .  S
C2612      C2613   1.403       .  A
C2612      H2617   1.083       .  S
C2613      C2614   1.409       .  A
C2614      F2618   1.357       .  S
C2615      C2620   1.407       .  A
C2615      C2624   1.402       .  A
C2620      C2621   1.403       .  A
C2620      F2625   1.357       .  S
C2621      C2622   1.408       .  A
C2621      H2626   1.083       .  S
C2622      C2623   1.412       .  A
C2623      C2624   1.395       .  A
C2623      F2627   1.357       .  S
C2624      H2628   1.083       .  S
C2629      C2630   1.405       .  A
C2629      C2634   1.400       .  A
C2629      H2639   1.083       .  S
C2630      C2635   1.481       .  S
C2630      C2631   1.406       .  A
C2631      C2632   1.394       .  A
C2631      F2636   1.358       .  S
C2632      C2633   1.404       .  A
C2632      H2637   1.083       .  S
C2633      C2634   1.407       .  A
C2634      F2638   1.357       .  S
C2635      C2640   1.407       .  A
C2635      C2644   1.405       .  A
C2640      C2641   1.395       .  A
C2640      F2645   1.358       .  S
C2641      C2642   1.403       .  A
C2641      H2646   1.083       .  S
C2642      C2643   1.407       .  A
C2643      C2644   1.400       .  A
C2643      F2647   1.357       .  S
C2644      H2648   1.083       .  S
C2649      C2650   1.403       .  A
C2649      C2654   1.396       .  A
C2649      H2659   1.083       .  S
C2650      C2655   1.486       .  S
C2650      C2651   1.408       .  A
C2651      C2652   1.402       .  A
C2651      F2656   1.358       .  S
C2652      C2653   1.408       .  A
C2652      H2657   1.083       .  S
C2653      C2654   1.410       .  A
C2654      F2658   1.357       .  S
C2655      C2660   1.408       .  A
C2655      C2664   1.403       .  A
C2660      C2661   1.399       .  A
C2660      F2665   1.358       .  S
C2661      C2662   1.405       .  A
C2661      H2666   1.083       .  S
C2662      C2663   1.411       .  A
C2663      C2664   1.399       .  A
C2663      F2667   1.356       .  S
C2664      H2668   1.083       .  S
C2669      C2670   1.403       .  A
C2669      C2674   1.401       .  A
C2669      H2679   1.083       .  S
C2670      C2675   1.484       .  S
C2670      C2671   1.405       .  A
C2671      C2672   1.398       .  A
C2671      F2676   1.358       .  S
C2672      C2673   1.407       .  A
C2672      H2677   1.083       .  S
C2673      C2674   1.411       .  A
C2674      F2678   1.357       .  S
C2675      C2680   1.406       .  A
C2675      C2684   1.404       .  A
C2680      C2681   1.398       .  A
C2680      F2685   1.358       .  S
C2681      C2682   1.406       .  A
C2681      H2686   1.083       .  S
C2682      C2683   1.410       .  A
C2683      C2684   1.401       .  A
C2683      F2687   1.356       .  S
C2684      H2688   1.083       .  S
C2689      C2690   1.405       .  A
C2689      C2694   1.402       .  A
C2689      H2699   1.083       .  S
C2690      C2695   1.487       .  S
C2690      C2691   1.407       .  A
C2691      C2692   1.396       .  A
C2691      F2696   1.358       .  S
C2692      C2693   1.406       .  A
C2692      H2697   1.083       .  S
C2693      C2694   1.411       .  A
C2694      F2698   1.357       .  S
C2695      C2700   1.409       .  A
C2695      C2704   1.403       .  A
C2700      C2701   1.402       .  A
C2700      F2705   1.357       .  S
C2701      C2702   1.406       .  A
C2701      H2706   1.083       .  S
C2702      C2703   1.408       .  A
C2703      C2704   1.395       .  A
C2703      F2707   1.356       .  S
C2704      H2708   1.083       .  S
C2709      C2710   1.403       .  A
C2709      C2714   1.397       .  A
C2709      H2719   1.084       .  S
C2710      C2715   1.483       .  S
C2710      C2711   1.405       .  A
C2711      C2712   1.402       .  A
C2711      F2716   1.357       .  S
C2712      C2713   1.408       .  A
C2712      H2717   1.083       .  S
C2713      C2714   1.411       .  A
C2714      F2718   1.357       .  S
C2715      C2720   1.404       .  A
C2715      C2724   1.404       .  A
C2720      C2721   1.397       .  A
C2720      F2725   1.358       .  S
C2721      C2722   1.407       .  A
C2721      H2726   1.082       .  S
C2722      C2723   1.409       .  A
C2723      C2724   1.402       .  A
C2723      F2727   1.356       .  S
C2724      H2728   1.083       .  S
C2729      C2730   1.404       .  A
C2729      C2734   1.401       .  A
C2729      H2739   1.083       .  S
C2730      C2735   1.484       .  S
C2730      C2731   1.407       .  A
C2731      C2732   1.398       .  A
C2731      F2736   1.358       .  S
C2732      C2733   1.405       .  A
C2732      H2737   1.083       .  S
C2733      C2734   1.409       .  A
C2734      F2738   1.357       .  S
C2735      C2740   1.406       .  A
C2735      C2744   1.403       .  A
C2740      C2741   1.402       .  A
C2740      F2745   1.357       .  S
C2741      C2742   1.408       .  A
C2741      H2746   1.083       .  S
C2742      C2743   1.411       .  A
C2743      C2744   1.396       .  A
C2743      F2747   1.357       .  S
C2744      H2748   1.083       .  S
C2749      C2750   1.403       .  A
C2749      C2754   1.396       .  A
C2749      H2759   1.084       .  S
C2750      C2755   1.480       .  S
C2750      C2751   1.405       .  A
C2751      C2752   1.399       .  A
C2751      F2756   1.357       .  S
C2752      C2753   1.407       .  A
C2752      H2757   1.083       .  S
C2753      C2754   1.410       .  A
C2754      F2758   1.357       .  S
C2755      C2760   1.405       .  A
C2755      C2764   1.404       .  A
C2760      C2761   1.396       .  A
C2760      F2765   1.358       .  S
C2761      C2762   1.405       .  A
C2761      H2766   1.083       .  S
C2762      C2763   1.408       .  A
C2763      C2764   1.399       .  A
C2763      F2767   1.357       .  S
C2764      H2768   1.083       .  S
C2769      C2770   1.405       .  A
C2769      C2774   1.401       .  A
C2769      H2779   1.083       .  S
C2770      C2775   1.486       .  S
C2770      C2771   1.407       .  A
C2771      C2772   1.396       .  A
C2771      F2776   1.358       .  S
C2772      C2773   1.407       .  A
C2772      H2777   1.083       .  S
C2773      C2774   1.411       .  A
C2774      F2778   1.357       .  S
C2775      C2780   1.408       .  A
C2775      C2784   1.404       .  A
C2780      C2781   1.401       .  A
C2780      F2785   1.357       .  S
C2781      C2782   1.406       .  A
C2781      H2786   1.083       .  S
C2782      C2783   1.408       .  A
C2783      C2784   1.396       .  A
C2783      F2787   1.357       .  S
C2784      H2788   1.083       .  S
C2789      C2790   1.401       .  A
C2789      C2794   1.395       .  A
C2789      H2799   1.084       .  S
C2790      C2795   1.476       .  S
C2790      C2791   1.404       .  A
C2791      C2792   1.399       .  A
C2791      F2796   1.358       .  S
C2792      C2793   1.407       .  A
C2792      H2797   1.083       .  S
C2793      C2794   1.411       .  A
C2794      F2798   1.357       .  S
C2795      C2800   1.405       .  A
C2795      C2804   1.403       .  A
C2800      C2801   1.395       .  A
C2800      F2805   1.358       .  S
C2801      C2802   1.404       .  A
C2801      H2806   1.083       .  S
C2802      C2803   1.408       .  A
C2803      C2804   1.398       .  A
C2803      F2807   1.357       .  S
C2804      H2808   1.083       .  S
C2809      C2810   1.404       .  A
C2809      C2814   1.398       .  A
C2809      H2819   1.083       .  S
C2810      C2815   1.480       .  S
C2810      C2811   1.404       .  A
C2811      C2812   1.397       .  A
C2811      F2816   1.357       .  S
C2812      C2813   1.406       .  A
C2812      H2817   1.082       .  S
C2813      C2814   1.409       .  A
C2814      F2818   1.357       .  S
C2815      C2820   1.404       .  A
C2815      C2824   1.404       .  A
C2820      C2821   1.395       .  A
C2820      F2825   1.358       .  S
C2821      C2822   1.407       .  A
C2821      H2826   1.083       .  S
C2822      C2823   1.411       .  A
C2823      C2824   1.400       .  A
C2823      F2827   1.357       .  S
C2824      H2828   1.083       .  S
C2829      C2830   1.403       .  A
C2829      C2834   1.401       .  A
C2829      H2839   1.083       .  S
C2830      C2835   1.481       .  S
C2830      C2831   1.404       .  A
C2831      C2832   1.397       .  A
C2831      F2836   1.358       .  S
C2832      C2833   1.408       .  A
C2832      H2837   1.083       .  S
C2833      C2834   1.411       .  A
C2834      F2838   1.357       .  S
C2835      C2840   1.406       .  A
C2835      C2844   1.402       .  A
C2840      C2841   1.402       .  A
C2840      F2845   1.357       .  S
C2841      C2842   1.406       .  A
C2841      H2846   1.083       .  S
C2842      C2843   1.409       .  A
C2843      C2844   1.397       .  A
C2843      F2847   1.357       .  S
C2844      H2848   1.083       .  S
C2849      C2850   1.404       .  A
C2849      C2854   1.397       .  A
C2849      H2859   1.083       .  S
C2850      C2855   1.484       .  S
C2850      C2851   1.406       .  A
C2851      C2852   1.401       .  A
C2851      F2856   1.357       .  S
C2852      C2853   1.407       .  A
C2852      H2857   1.083       .  S
C2853      C2854   1.410       .  A
C2854      F2858   1.358       .  S
C2855      C2860   1.406       .  A
C2855      C2864   1.405       .  A
C2860      C2861   1.396       .  A
C2860      F2865   1.358       .  S
C2861      C2862   1.404       .  A
C2861      H2866   1.083       .  S
C2862      C2863   1.408       .  A
C2863      C2864   1.401       .  A
C2863      F2867   1.357       .  S
C2864      H2868   1.083       .  S
C2869      C2870   1.403       .  A
C2869      C2874   1.400       .  A
C2869      H2879   1.083       .  S
C2870      C2875   1.478       .  S
C2870      C2871   1.404       .  A
C2871      C2872   1.394       .  A
C2871      F2876   1.358       .  S
C2872      C2873   1.405       .  A
C2872      H2877   1.083       .  S
C2873      C2874   1.410       .  A
C2874      F2878   1.357       .  S
C2875      C2880   1.404       .  A
C2875      C2884   1.402       .  A
C2880      C2881   1.398       .  A
C2880      F2885   1.358       .  S
C2881      C2882   1.408       .  A
C2881      H2886   1.082       .  S
C2882      C2883   1.407       .  A
C2883      C2884   1.395       .  A
C2883      F2887   1.356       .  S
C2884      H2888   1.083       .  S
C2889      C2890   1.405       .  A
C2889      C2894   1.403       .  A
C2889      H2899   1.083       .  S
C2890      C2895   1.486       .  S
C2890      C2891   1.406       .  A
C2891      C2892   1.396       .  A
C2891      F2896   1.358       .  S
C2892      C2893   1.406       .  A
C2892      H2897   1.083       .  S
C2893      C2894   1.411       .  A
C2894      F2898   1.357       .  S
C2895      C2900   1.406       .  A
C2895      C2904   1.405       .  A
C2900      C2901   1.396       .  A
C2900      F2905   1.358       .  S
C2901      C2902   1.405       .  A
C2901      H2906   1.083       .  S
C2902      C2903   1.411       .  A
C2903      C2904   1.403       .  A
C2903      F2907   1.356       .  S
C2904      H2908   1.083       .  S
C2909      C2910   1.402       .  A
C2909      C2914   1.396       .  A
C2909      H2919   1.083       .  S
C2910      C2915   1.484       .  S
C2910      C2911   1.407       .  A
C2911      C2912   1.401       .  A
C2911      F2916   1.358       .  S
C2912      C2913   1.407       .  A
C2912      H2917   1.083       .  S
C2913      C2914   1.411       .  A
C2914      F2918   1.357       .  S
C2915      C2920   1.406       .  A
C2915      C2924   1.403       .  A
C2920      C2921   1.398       .  A
C2920      F2925   1.358       .  S
C2921      C2922   1.407       .  A
C2921      H2926   1.082       .  S
C2922      C2923   1.411       .  A
C2923      C2924   1.399       .  A
C2923      F2927   1.356       .  S
C2924      H2928   1.083       .  S
C2929      C2930   1.404       .  A
C2929      C2934   1.400       .  A
C2929      H2939   1.083       .  S
C2930      C2935   1.480       .  S
C2930      C2931   1.405       .  A
C2931      C2932   1.394       .  A
C2931      F2936   1.358       .  S
C2932      C2933   1.405       .  A
C2932      H2937   1.083       .  S
C2933      C2934   1.410       .  A
C2934      F2938   1.357       .  S
C2935      C2940   1.406       .  A
C2935      C2944   1.403       .  A
C2940      C2941   1.399       .  A
C2940      F2945   1.357       .  S
C2941      C2942   1.406       .  A
C2941      H2946   1.083       .  S
C2942      C2943   1.407       .  A
C2943      C2944   1.395       .  A
C2943      F2947   1.357       .  S
C2944      H2948   1.083       .  S
C2949      C2950   1.404       .  A
C2949      C2954   1.401       .  A
C2949      H2959   1.083       .  S
C2950      C2955   1.483       .  S
C2950      C2951   1.405       .  A
C2951      C2952   1.396       .  A
C2951      F2956   1.358       .  S
C2952      C2953   1.407       .  A
C2952      H2957   1.083       .  S
C2953      C2954   1.410       .  A
C2954      F2958   1.357       .  S
C2955      C2960   1.406       .  A
C2955      C2964   1.404       .  A
C2960      C2961   1.400       .  A
C2960      F2965   1.358       .  S
C2961      C2962   1.407       .  A
C2961      H2966   1.083       .  S
C2962      C2963   1.408       .  A
C2963      C2964   1.398       .  A
C2963      F2967   1.357       .  S
C2964      H2968   1.083       .  S
C2969      C2970   1.405       .  A
C2969      C2974   1.400       .  A
C2969      H2979   1.083       .  S
C2970      C2975   1.482       .  S
C2970      C2971   1.405       .  A
C2971      C2972   1.396       .  A
C2971      F2976   1.358       .  S
C2972      C2973   1.405       .  A
C2972      H2977   1.083       .  S
C2973      C2974   1.408       .  A
C2974      F2978   1.357       .  S
C2975      C2980   1.406       .  A
C2975      C2984   1.403       .  A
C2980      C2981   1.398       .  A
C2980      F2985   1.358       .  S
C2981      C2982   1.407       .  A
C2981      H2986   1.083       .  S
C2982      C2983   1.411       .  A
C2983      C2984   1.399       .  A
C2983      F2987   1.357       .  S
C2984      H2988   1.083       .  S
C2989      C2990   1.403       .  A
C2989      C2994   1.398       .  A
C2989      H2999   1.083       .  S
C2990      C2995   1.487       .  S
C2990      C2991   1.407       .  A
C2991      C2992   1.401       .  A
C2991      F2996   1.357       .  S
C2992      C2993   1.408       .  A
C2992      H2997   1.083       .  S
C2993      C2994   1.411       .  A
C2994      F2998   1.357       .  S
C2995      C3000   1.407       .  A
C2995      C3004   1.404       .  A
C3000      C3001   1.398       .  A
C3000      F3005   1.358       .  S
C3001      C3002   1.407       .  A
C3001      H3006   1.082       .  S
C3002      C3003   1.410       .  A
C3003      C3004   1.401       .  A
C3003      F3007   1.356       .  S
C3004      H3008   1.083       .  S
C3009      C3010   1.402       .  A
C3009      C3014   1.400       .  A
C3009      H3019   1.083       .  S
C3010      C3015   1.479       .  S
C3010      C3011   1.405       .  A
C3011      C3012   1.397       .  A
C3011      F3016   1.358       .  S
C3012      C3013   1.407       .  A
C3012      H3017   1.083       .  S
C3013      C3014   1.411       .  A
C3014      F3018   1.357       .  S
C3015      C3020   1.404       .  A
C3015      C3024   1.403       .  A
C3020      C3021   1.396       .  A
C3020      F3025   1.357       .  S
C3021      C3022   1.405       .  A
C3021      H3026   1.083       .  S
C3022      C3023   1.409       .  A
C3023      C3024   1.399       .  A
C3023      F3027   1.357       .  S
C3024      H3028   1.083       .  S
C3029      C3030   1.405       .  A
C3029      C3034   1.397       .  A
C3029      H3039   1.083       .  S
C3030      C3035   1.489       .  S
C3030      C3031   1.407       .  A
C3031      C3032   1.403       .  A
C3031      F3036   1.357       .  S
C3032      C3033   1.408       .  A
C3032      H3037   1.083       .  S
C3033      C3034   1.409       .  A
C3034      F3038   1.357       .  S
C3035      C3040   1.407       .  A
C3035      C3044   1.407       .  A
C3040      C3041   1.396       .  A
C3040      F3045   1.358       .  S
C3041      C3042   1.403       .  A
C3041      H3046   1.083       .  S
C3042      C3043   1.408       .  A
C3043      C3044   1.404       .  A
C3043      F3047   1.357       .  S
C3044      H3048   1.083       .  S
C3049      C3050   1.404       .  A
C3049      C3054   1.401       .  A
C3049      H3059   1.083       .  S
C3050      C3055   1.489       .  S
C3050      C3051   1.408       .  A
C3051      C3052   1.400       .  A
C3051      F3056   1.358       .  S
C3052      C3053   1.407       .  A
C3052      H3057   1.083       .  S
C3053      C3054   1.411       .  A
C3054      F3058   1.357       .  S
C3055      C3060   1.409       .  A
C3055      C3064   1.404       .  A
C3060      C3061   1.402       .  A
C3060      F3065   1.357       .  S
C3061      C3062   1.406       .  A
C3061      H3066   1.083       .  S
C3062      C3063   1.409       .  A
C3063      C3064   1.398       .  A
C3063      F3067   1.357       .  S
C3064      H3068   1.083       .  S
C3069      C3070   1.404       .  A
C3069      C3074   1.401       .  A
C3069      H3079   1.083       .  S
C3070      C3075   1.483       .  S
C3070      C3071   1.404       .  A
C3071      C3072   1.396       .  A
C3071      F3076   1.358       .  S
C3072      C3073   1.408       .  A
C3072      H3077   1.081       .  S
C3073      C3074   1.411       .  A
C3074      F3078   1.356       .  S
C3075      C3080   1.406       .  A
C3075      C3084   1.404       .  A
C3080      C3081   1.400       .  A
C3080      F3085   1.358       .  S
C3081      C3082   1.407       .  A
C3081      H3086   1.083       .  S
C3082      C3083   1.408       .  A
C3083      C3084   1.396       .  A
C3083      F3087   1.357       .  S
C3084      H3088   1.083       .  S
C3089      C3090   1.401       .  A
C3089      C3094   1.398       .  A
C3089      H3099   1.083       .  S
C3090      C3095   1.479       .  S
C3090      C3091   1.405       .  A
C3091      C3092   1.397       .  A
C3091      F3096   1.358       .  S
C3092      C3093   1.407       .  A
C3092      H3097   1.083       .  S
C3093      C3094   1.411       .  A
C3094      F3098   1.357       .  S
C3095      C3100   1.406       .  A
C3095      C3104   1.402       .  A
C3100      C3101   1.399       .  A
C3100      F3105   1.358       .  S
C3101      C3102   1.406       .  A
C3101      H3106   1.083       .  S
C3102      C3103   1.408       .  A
C3103      C3104   1.396       .  A
C3103      F3107   1.357       .  S
C3104      H3108   1.083       .  S
C3109      C3110   1.405       .  A
C3109      C3114   1.399       .  A
C3109      H3119   1.083       .  S
C3110      C3115   1.489       .  S
C3110      C3111   1.407       .  A
C3111      C3112   1.401       .  A
C3111      F3116   1.357       .  S
C3112      C3113   1.407       .  A
C3112      H3117   1.083       .  S
C3113      C3114   1.410       .  A
C3114      F3118   1.357       .  S
C3115      C3120   1.406       .  A
C3115      C3124   1.405       .  A
C3120      C3121   1.398       .  A
C3120      F3125   1.358       .  S
C3121      C3122   1.407       .  A
C3121      H3126   1.082       .  S
C3122      C3123   1.411       .  A
C3123      C3124   1.401       .  A
C3123      F3127   1.356       .  S
C3124      H3128   1.083       .  S
C3129      C3130   1.404       .  A
C3129      C3134   1.399       .  A
C3129      H3139   1.083       .  S
C3130      C3135   1.484       .  S
C3130      C3131   1.406       .  A
C3131      C3132   1.398       .  A
C3131      F3136   1.358       .  S
C3132      C3133   1.408       .  A
C3132      H3137   1.083       .  S
C3133      C3134   1.409       .  A
C3134      F3138   1.357       .  S
C3135      C3140   1.405       .  A
C3135      C3144   1.403       .  A
C3140      C3141   1.398       .  A
C3140      F3145   1.358       .  S
C3141      C3142   1.409       .  A
C3141      H3146   1.082       .  S
C3142      C3143   1.411       .  A
C3143      C3144   1.399       .  A
C3143      F3147   1.355       .  S
C3144      H3148   1.083       .  S
C3149      C3150   1.403       .  A
C3149      C3154   1.400       .  A
C3149      H3159   1.083       .  S
C3150      C3155   1.481       .  S
C3150      C3151   1.405       .  A
C3151      C3152   1.395       .  A
C3151      F3156   1.358       .  S
C3152      C3153   1.406       .  A
C3152      H3157   1.083       .  S
C3153      C3154   1.412       .  A
C3154      F3158   1.357       .  S
C3155      C3160   1.406       .  A
C3155      C3164   1.403       .  A
C3160      C3161   1.401       .  A
C3160      F3165   1.357       .  S
C3161      C3162   1.406       .  A
C3161      H3166   1.083       .  S
C3162      C3163   1.408       .  A
C3163      C3164   1.395       .  A
C3163      F3167   1.357       .  S
C3164      H3168   1.084       .  S
C3169      C3170   1.403       .  A
C3169      C3174   1.395       .  A
C3169      H3179   1.084       .  S
C3170      C3175   1.479       .  S
C3170      C3171   1.406       .  A
C3171      C3172   1.401       .  A
C3171      F3176   1.357       .  S
C3172      C3173   1.406       .  A
C3172      H3177   1.083       .  S
C3173      C3174   1.405       .  A
C3174      F3178   1.357       .  S
C3175      C3180   1.404       .  A
C3175      C3184   1.403       .  A
C3180      C3181   1.394       .  A
C3180      F3185   1.358       .  S
C3181      C3182   1.406       .  A
C3181      H3186   1.083       .  S
C3182      C3183   1.412       .  A
C3183      C3184   1.402       .  A
C3183      F3187   1.357       .  S
C3184      H3188   1.083       .  S
C3189      C3190   1.401       .  A
C3189      C3194   1.397       .  A
C3189      H3199   1.084       .  S
C3190      C3195   1.479       .  S
C3190      C3191   1.405       .  A
C3191      C3192   1.401       .  A
C3191      F3196   1.357       .  S
C3192      C3193   1.408       .  A
C3192      H3197   1.083       .  S
C3193      C3194   1.412       .  A
C3194      F3198   1.358       .  S
C3195      C3200   1.404       .  A
C3195      C3204   1.403       .  A
C3200      C3201   1.399       .  A
C3200      F3205   1.357       .  S
C3201      C3202   1.406       .  A
C3201      H3206   1.083       .  S
C3202      C3203   1.408       .  A
C3203      C3204   1.399       .  A
C3203      F3207   1.357       .  S
C3204      H3208   1.083       .  S
C3209      C3210   1.403       .  A
C3209      C3214   1.400       .  A
C3209      H3219   1.083       .  S
C3210      C3215   1.483       .  S
C3210      C3211   1.407       .  A
C3211      C3212   1.396       .  A
C3211      F3216   1.358       .  S
C3212      C3213   1.405       .  A
C3212      H3217   1.083       .  S
C3213      C3214   1.411       .  A
C3214      F3218   1.356       .  S
C3215      C3220   1.405       .  A
C3215      C3224   1.406       .  A
C3220      C3221   1.393       .  A
C3220      F3225   1.357       .  S
C3221      C3222   1.404       .  A
C3221      H3226   1.083       .  S
C3222      C3223   1.408       .  A
C3223      C3224   1.403       .  A
C3223      F3227   1.357       .  S
C3224      H3228   1.083       .  S
C3229      C3230   1.404       .  A
C3229      C3234   1.395       .  A
C3229      H3239   1.083       .  S
C3230      C3235   1.483       .  S
C3230      C3231   1.408       .  A
C3231      C3232   1.400       .  A
C3231      F3236   1.357       .  S
C3232      C3233   1.404       .  A
C3232      H3237   1.083       .  S
C3233      C3234   1.407       .  A
C3234      F3238   1.357       .  S
C3235      C3240   1.407       .  A
C3235      C3244   1.404       .  A
C3240      C3241   1.399       .  A
C3240      F3245   1.357       .  S
C3241      C3242   1.406       .  A
C3241      H3246   1.083       .  S
C3242      C3243   1.409       .  A
C3243      C3244   1.396       .  A
C3243      F3247   1.358       .  S
C3244      H3248   1.083       .  S
C3249      C3250   1.404       .  A
C3249      C3254   1.400       .  A
C3249      H3259   1.083       .  S
C3250      C3255   1.479       .  S
C3250      C3251   1.405       .  A
C3251      C3252   1.393       .  A
C3251      F3256   1.358       .  S
C3252      C3253   1.406       .  A
C3252      H3257   1.083       .  S
C3253      C3254   1.411       .  A
C3254      F3258   1.357       .  S
C3255      C3260   1.407       .  A
C3255      C3264   1.402       .  A
C3260      C3261   1.400       .  A
C3260      F3265   1.357       .  S
C3261      C3262   1.405       .  A
C3261      H3266   1.083       .  S
C3262      C3263   1.407       .  A
C3263      C3264   1.394       .  A
C3263      F3267   1.357       .  S
C3264      H3268   1.083       .  S
C3269      C3270   1.404       .  A
C3269      C3274   1.398       .  A
C3269      H3279   1.083       .  S
C3270      C3275   1.482       .  S
C3270      C3271   1.407       .  A
C3271      C3272   1.396       .  A
C3271      F3276   1.358       .  S
C3272      C3273   1.405       .  A
C3272      H3277   1.083       .  S
C3273      C3274   1.407       .  A
C3274      F3278   1.357       .  S
C3275      C3280   1.406       .  A
C3275      C3284   1.406       .  A
C3280      C3281   1.394       .  A
C3280      F3285   1.358       .  S
C3281      C3282   1.404       .  A
C3281      H3286   1.083       .  S
C3282      C3283   1.407       .  A
C3283      C3284   1.401       .  A
C3283      F3287   1.357       .  S
C3284      H3288   1.083       .  S
