geometry optimzed in LAMMPS
_audit_creation_date              2020-11-30 
_audit_creation_method            'lammps2cif' 
_symmetry_space_group_name_H-M    'P1' 
_symmetry_Int_Tables_number       1 
_symmetry_cell_setting            triclinic 
loop_ 
_symmetry_equiv_pos_as_xyz 
  x,y,z 
_cell_length_a                    34.22125549 
_cell_length_b                    34.08649200846195 
_cell_length_c                    46.828466090957164 
_cell_angle_alpha                 90.7421354268682 
_cell_angle_beta                  90.07149446306451 
_cell_angle_gamma                 89.82686249532114 
loop_ 
_atom_site_label 
_atom_site_type_symbol 
_atom_site_fract_x 
_atom_site_fract_y 
_atom_site_fract_z 
_atom_site_charge 
N1          N  0.02772849  0.60884699  0.04715291    -0.27600
N2          N  0.05907635  0.62879247  0.03945771    -0.35500
C3          C  0.07799240  0.64046760  0.06357076     0.00700
C4          C  0.05693844  0.62729998  0.08699373     0.06700
C5          C  0.02555727  0.60759340  0.07559554    -0.06400
H6          H  0.10395510  0.65849175  0.06404891     0.07400
H7          H  0.00219584  0.59362457  0.08720923     0.08600
Cu8        Cu  0.07154575  0.64026340  0.99606446     0.44200
Cu9        Cu  0.98673452  0.58269369  0.02135391     0.42000
Cu10       Cu  0.99759919  0.58864633  0.95070040     0.43900
N11         N  0.06868833  0.64306180  0.95093159    -0.35000
N12         N  0.04177990  0.62373649  0.93608491    -0.29300
C13         C  0.04477152  0.63240915  0.90847894    -0.05400
C14         C  0.07485560  0.65849117  0.90498890     0.06800
C15         C  0.08974164  0.66482737  0.93238178     0.00600
H16         H  0.02492468  0.62176732  0.89213182     0.08300
H17         H  0.11234353  0.68539421  0.93853358     0.07400
N18         N  0.95526426  0.55275314  0.96698432    -0.36500
N19         N  0.95108148  0.55065793  0.99480044    -0.28600
C20         C  0.92907779  0.51945169  0.00098535    -0.03900
C21         C  0.91853765  0.50082347  0.97563799     0.04700
C22         C  0.93578957  0.52301693  0.95444228     0.02800
H23         H  0.92644944  0.50772413  0.02224659     0.07900
H24         H  0.93848395  0.51504933  0.93208915     0.06800
N25         N  0.78155078  0.88290754  0.05052103    -0.27600
N26         N  0.79295697  0.91865110  0.04360667    -0.35500
C27         C  0.80482261  0.93747293  0.06778903     0.00700
C28         C  0.80069761  0.91188522  0.09049418     0.06700
C29         C  0.78612004  0.87789883  0.07852969    -0.06400
H30         H  0.81533258  0.96735983  0.06878417     0.07400
H31         H  0.77767767  0.85159796  0.08963596     0.08600
Cu32       Cu  0.79057508  0.93862787  0.00126386     0.44200
Cu33       Cu  0.75268977  0.84209856  0.02562624     0.42000
Cu34       Cu  0.71930167  0.87759052  0.96289525     0.43900
N35         N  0.78066320  0.94124227  0.95693471    -0.35000
N36         N  0.75380625  0.91924624  0.94423945    -0.29300
C37         C  0.75667341  0.92270497  0.91593195    -0.05400
C38         C  0.78668109  0.94801294  0.90993179     0.06800
C39         C  0.80143155  0.95953811  0.93642933     0.00600
H40         H  0.73996206  0.90548549  0.90070965     0.08300
H41         H  0.82732439  0.97692316  0.94037196     0.07400
N42         N  0.69364556  0.82953199  0.98100410    -0.36500
N43         N  0.70697843  0.81483080  0.00495753    -0.28600
C44         C  0.68200405  0.78733839  0.01420343    -0.03900
C45         C  0.65119892  0.78481533  0.99490691     0.04700
C46         C  0.66007043  0.81177500  0.97398793     0.02800
H47         H  0.68494684  0.77253881  0.03434504     0.07900
H48         H  0.64154897  0.82048233  0.95640923     0.06800
N49         N  0.89940431  0.47842948  0.55448304    -0.27600
N50         N  0.87668068  0.44977139  0.54487881    -0.35500
C51         C  0.85881673  0.43339798  0.56759749     0.00700
C52         C  0.87088512  0.45334771  0.59214684     0.06700
C53         C  0.89648869  0.48134259  0.58285000    -0.06400
H54         H  0.83674358  0.41079916  0.56618046     0.07400
H55         H  0.91060612  0.50382670  0.59563939     0.08600
Cu56       Cu  0.86775314  0.43953228  0.50087761     0.44200
Cu57       Cu  0.93001623  0.51845473  0.53117273     0.42000
Cu58       Cu  0.89879292  0.53051803  0.46415968     0.43900
N59         N  0.86417120  0.44830334  0.45648991    -0.35000
N60         N  0.87374308  0.48225592  0.44503200    -0.29300
C61         C  0.86865066  0.48035272  0.41684164    -0.05400
C62         C  0.85530615  0.44360421  0.40943223     0.06800
C63         C  0.85266003  0.42363618  0.43511465     0.00600
H64         H  0.87503181  0.50423729  0.40259510     0.08300
H65         H  0.84286280  0.39381905  0.43805141     0.07400
N66         N  0.94180715  0.56636198  0.48018184    -0.36500
N67         N  0.95454980  0.56081971  0.50631800    -0.28600
C68         C  0.98819745  0.58019595  0.51009286    -0.03900
C69         C  0.99757488  0.59836152  0.48475697     0.04700
C70         C  0.96714941  0.58928755  0.46625068     0.02800
H71         H  0.00691224  0.57717611  0.52858481     0.07900
H72         H  0.96550769  0.59529698  0.44368190     0.06800
N73         N  0.60661256  0.74074370  0.43901827    -0.27600
N74         N  0.57796182  0.72029191  0.45047005    -0.35500
C75         C  0.55538317  0.70598715  0.42896148     0.00700
C76         C  0.57101222  0.71838668  0.40317769     0.06700
C77         C  0.60297507  0.74056295  0.41066701    -0.06400
H78         H  0.53221714  0.68483975  0.43167830     0.07400
H79         H  0.62500327  0.75171314  0.39634694     0.08600
Cu80       Cu  0.57698421  0.70827965  0.49449846     0.44200
Cu81       Cu  0.65749440  0.75799033  0.45830766     0.42000
Cu82       Cu  0.67957814  0.71468035  0.52023481     0.43900
N83         N  0.59429232  0.70112107  0.53733895    -0.35000
N84         N  0.63164003  0.70039444  0.54477484    -0.29300
C85         C  0.63450439  0.69802780  0.57312479    -0.05400
C86         C  0.59755317  0.69793047  0.58484268     0.06800
C87         C  0.57240099  0.69962617  0.56147781     0.00600
H88         H  0.66194394  0.69956433  0.58457913     0.08300
H89         H  0.54086980  0.70184065  0.56207192     0.07400
N90         N  0.71882898  0.75295440  0.50208646    -0.36500
N91         N  0.70990993  0.76943682  0.47769563    -0.28600
C92         C  0.73053045  0.80245348  0.47487804    -0.03900
C93         C  0.75278313  0.80831575  0.49928537     0.04700
C94         C  0.74518658  0.77554370  0.51580106     0.02800
H95         H  0.72299317  0.82482072  0.45960829     0.07900
H96         H  0.75177926  0.77280155  0.53829425     0.06800
N97         N  0.61698580  0.10167259  0.56962298    -0.27600
N98         N  0.58676767  0.11922205  0.55745069    -0.35500
C99         C  0.56875462  0.14188791  0.57749834     0.00700
C100        C  0.58922393  0.13848794  0.60303096     0.06700
C101        C  0.61937897  0.11289949  0.59703546    -0.06400
H102        H  0.54379854  0.16059836  0.57351706     0.07400
H103        H  0.64190318  0.10322036  0.61160767     0.08600
Cu104      Cu  0.57474437  0.11352343  0.51337020     0.44200
Cu105      Cu  0.65579067  0.06269947  0.55100493     0.42000
Cu106      Cu  0.64440484  0.04481337  0.47929899     0.43900
N107        N  0.57844684  0.10315989  0.46891878    -0.35000
N108        N  0.60425044  0.07843466  0.45764762    -0.29300
C109        C  0.60346943  0.08101037  0.42916419    -0.05400
C110        C  0.57582701  0.10839322  0.42159101     0.06800
C111        C  0.56021918  0.12196415  0.44730868     0.00600
H112        H  0.62327336  0.06546078  0.41499016     0.08300
H113        H  0.53953762  0.14575777  0.45014951     0.07400
N114        N  0.68447102  0.01375062  0.50291941    -0.36500
N115        N  0.68905781  0.02055873  0.53045318    -0.28600
C116        C  0.71307921  0.99324155  0.54133691    -0.03900
C117        C  0.72388761  0.96771740  0.51940108     0.04700
C118        C  0.70544784  0.98199705  0.49531378     0.02800
H119        H  0.72006352  0.99093199  0.56375707     0.07900
H120        H  0.70452948  0.96822074  0.47437529     0.06800
N121        N  0.26634645  0.48072381  0.44696107    -0.27600
N122        N  0.27341439  0.44664636  0.45922404    -0.35500
C123        C  0.28064745  0.41966074  0.43821200     0.00700
C124        C  0.27763827  0.43830761  0.41193863     0.06700
C125        C  0.26855042  0.47661801  0.41872557    -0.06400
H126        H  0.28798081  0.38922084  0.44176366     0.07400
H127        H  0.26370524  0.50039751  0.40402285     0.08600
Cu128      Cu  0.27230612  0.44160419  0.50417700     0.44200
Cu129      Cu  0.24997520  0.53343190  0.46492009     0.42000
Cu130      Cu  0.22724379  0.53406516  0.53286671     0.43900
N131        N  0.26682624  0.45644023  0.54800367    -0.35000
N132        N  0.25034738  0.48969113  0.55675041    -0.29300
C133        C  0.25355010  0.49328404  0.58504371    -0.05400
C134        C  0.27302143  0.46115349  0.59531375     0.06800
C135        C  0.28096581  0.43789804  0.57132379     0.00600
H136        H  0.24377974  0.51869702  0.59712224     0.08300
H137        H  0.29773512  0.41094945  0.57068915     0.07400
N138        N  0.20531287  0.57737542  0.50747253    -0.36500
N139        N  0.21480218  0.57761306  0.48032274    -0.28600
C140        C  0.18854830  0.59914911  0.46598984    -0.03900
C141        C  0.16071265  0.61296382  0.48524974     0.04700
C142        C  0.17289621  0.59887462  0.51146845     0.02800
H143        H  0.18605496  0.59893329  0.44295443     0.07900
H144        H  0.15555927  0.59806722  0.53076211     0.06800
C145        C  0.81411857  0.92104210  0.83647218     0.79900
N146        N  0.82322913  0.95635099  0.82538705    -0.78400
C147        C  0.82270074  0.98944009  0.84189363     0.82300
N148        N  0.81302485  0.98682556  0.87011380    -0.78400
C149        C  0.80413715  0.95139570  0.88141316     0.82400
N150        N  0.80473785  0.91887510  0.86444426    -0.80100
O151        O  0.84854738  0.24213511  0.71738437    -0.73300
O152        O  0.84401294  0.14110945  0.76042218    -0.74300
O153        O  0.79379478  0.18071716  0.72180418    -0.62900
O154        O  0.89915843  0.20259593  0.75597959    -0.71300
O155        O  0.87087972  0.23342922  0.79233781    -0.70800
O156        O  0.76485977  0.21139043  0.75789704    -0.62100
O157        O  0.81556289  0.17195821  0.79663147    -0.74600
O158        O  0.82012652  0.27285419  0.75380912    -0.73400
Cu159      Cu  0.84735801  0.19058070  0.73766182     1.04600
Cu160      Cu  0.81689867  0.22348802  0.77643920     1.04300
C161        C  0.83480450  0.27353012  0.72877274     0.92900
C162        C  0.82910639  0.14040718  0.78544748     0.92100
C163        C  0.76259676  0.19265377  0.73409877     0.84200
C164        C  0.90184451  0.22102740  0.77980709     0.90500
O165        O  0.82582189  0.63856151  0.75060944    -0.73300
O166        O  0.81541435  0.74563600  0.78562597    -0.74300
O167        O  0.76786434  0.69736954  0.75050212    -0.62900
O168        O  0.87402609  0.68696075  0.78593390    -0.71300
O169        O  0.90166938  0.71340551  0.74811343    -0.70800
O170        O  0.79495286  0.72297283  0.71222283    -0.62100
O171        O  0.84253365  0.77204932  0.74751355    -0.74600
O172        O  0.85386165  0.66435471  0.71257437    -0.73400
Cu173      Cu  0.81997451  0.69127085  0.76950473     1.04600
Cu174      Cu  0.84923755  0.71911091  0.72875175     1.04300
C175        C  0.84063856  0.63458399  0.72574397     0.92900
C176        C  0.82723548  0.77579316  0.77225916     0.92100
C177        C  0.76448598  0.71135507  0.72548269     0.84200
C178        C  0.90463611  0.69851668  0.77295169     0.90500
C179        C  0.12143258  0.69472431  0.83873559     0.79900
N180        N  0.11755508  0.68400376  0.86664430    -0.78400
C181        C  0.08130176  0.67932039  0.87802914     0.82300
N182        N  0.04945603  0.68534997  0.86143518    -0.78400
C183        C  0.05266077  0.69559173  0.83374558     0.82400
N184        N  0.08882438  0.70047847  0.82249389    -0.80100
O185        O  0.40189978  0.70025999  0.74641863    -0.73300
O186        O  0.30014874  0.69385113  0.78904954    -0.74300
O187        O  0.34238909  0.64348143  0.75109804    -0.62900
O188        O  0.35944616  0.75111636  0.78442118    -0.71300
O189        O  0.32987135  0.77770926  0.74739039    -0.70800
O190        O  0.31161808  0.67017344  0.71450264    -0.62100
O191        O  0.26994132  0.72111415  0.75247783    -0.74600
O192        O  0.37208385  0.72624564  0.70926325    -0.73400
Cu193      Cu  0.35211153  0.69635123  0.76899043     1.04600
Cu194      Cu  0.31987021  0.72474272  0.72961790     1.04300
C195        C  0.40332529  0.71348049  0.72103310     0.92900
C196        C  0.26885246  0.70694324  0.77762714     0.92100
C197        C  0.32438376  0.63983594  0.72732814     0.84200
C198        C  0.34648447  0.78149328  0.77168058     0.90500
C199        C  0.04632610  0.24094077  0.84277046     0.79900
N200        N  0.04239693  0.23777094  0.87127370    -0.78400
C201        C  0.07375529  0.23233995  0.88856622     0.82300
N202        N  0.11032523  0.23053974  0.87686949    -0.78400
C203        C  0.11485526  0.23400609  0.84787313     0.82400
N204        N  0.08245663  0.23859599  0.83125240    -0.80100
O205        O  0.26354828  0.20493268  0.76025239    -0.73300
O206        O  0.36565595  0.18997299  0.71863749    -0.74300
O207        O  0.32128327  0.14610150  0.75853758    -0.62900
O208        O  0.30712752  0.24852425  0.71983198    -0.71300
O209        O  0.33788836  0.27892454  0.75529117    -0.70800
O210        O  0.35163514  0.17519486  0.79467058    -0.62100
O211        O  0.39603105  0.21948987  0.75453884    -0.74600
O212        O  0.29381801  0.23494989  0.79599926    -0.73400
Cu213      Cu  0.31336570  0.19639066  0.73813285     1.04600
Cu214      Cu  0.34596473  0.22821367  0.77637051     1.04300
C215        C  0.26230877  0.22181369  0.78477930     0.92900
C216        C  0.39723237  0.20297895  0.72990215     0.92100
C217        C  0.33799310  0.14408272  0.78280824     0.84200
C218        C  0.32081045  0.27994974  0.73099859     0.90500
C219        C  0.34435608  0.99537636  0.84309050     0.79900
N220        N  0.34430534  0.96201230  0.82667976    -0.78400
C221        C  0.34920995  0.92621326  0.83848527     0.82300
N222        N  0.35297765  0.92383050  0.86713250    -0.78400
C223        C  0.35322402  0.95646481  0.88397261     0.82400
N224        N  0.34882766  0.99222402  0.87191393    -0.80100
C225        C  0.29994679  0.49159991  0.66845599     0.79900
N226        N  0.30721376  0.45674724  0.68101888    -0.78400
C227        C  0.30299339  0.42251720  0.66609582     0.82300
N228        N  0.29336566  0.42333780  0.63780610    -0.78400
C229        C  0.28667741  0.45831695  0.62503161     0.82400
N230        N  0.28978374  0.49204160  0.64055760    -0.80100
C231        C  0.54491819  0.18055698  0.66923519     0.79900
N232        N  0.57778538  0.18528429  0.68544862    -0.78400
C233        C  0.61371968  0.17710480  0.67461152     0.82300
N234        N  0.61641514  0.16363731  0.64735209    -0.78400
C235        C  0.58431658  0.15896613  0.63070126     0.82400
N236        N  0.54847989  0.16788931  0.64155893    -0.80100
C237        C  0.61954277  0.71146611  0.66118000     0.79900
N238        N  0.62260818  0.70529605  0.63280147    -0.78400
C239        C  0.59058534  0.70160815  0.61595985     0.82300
N240        N  0.55429104  0.70323314  0.62807294    -0.78400
C241        C  0.55059860  0.70827261  0.65706979     0.82400
N242        N  0.58361792  0.71216949  0.67320283    -0.80100
C243        C  0.83908073  0.41711665  0.66289556     0.79900
N244        N  0.83703325  0.45179144  0.67765392    -0.78400
C245        C  0.84572484  0.48613187  0.66489766     0.82300
N246        N  0.85504280  0.48600839  0.63686906    -0.78400
C247        C  0.85578692  0.45208382  0.62145168     0.82400
N248        N  0.84803713  0.41761298  0.63451716    -0.80100
N249        N  0.39776414  0.92056132  0.94761513    -0.27600
N250        N  0.36999757  0.94198334  0.95977964    -0.35500
C251        C  0.35134169  0.96214390  0.93905022     0.00700
C252        C  0.36869842  0.95254150  0.91300997     0.06700
C253        C  0.39800202  0.92654555  0.91953439    -0.06400
H254        H  0.32496001  0.97919046  0.94227076     0.07400
H255        H  0.41560519  0.90979448  0.90455867     0.08600
Cu256      Cu  0.35670913  0.93561796  0.00326720     0.44200
Cu257      Cu  0.42661939  0.87433022  0.96529833     0.42000
Cu258      Cu  0.39322157  0.83697432  0.02717832     0.43900
N259        N  0.35260533  0.91393038  0.04499688    -0.35000
N260        N  0.36336278  0.87783879  0.05181180    -0.29300
C261        C  0.35696303  0.87229729  0.07959404    -0.05400
C262        C  0.34211649  0.90635121  0.09144301     0.06800
C263        C  0.33966221  0.93246003  0.06897390     0.00600
H264        H  0.36437528  0.84562941  0.09070107     0.08300
H265        H  0.32938699  0.96249336  0.06996716     0.07400
N266        N  0.43618518  0.80772256  0.00439736    -0.36500
N267        N  0.44826072  0.82250776  0.98017726    -0.28600
C268        C  0.48055650  0.80367548  0.97152713    -0.03900
C269        C  0.49009972  0.77569816  0.99156041     0.04700
C270        C  0.46114965  0.77921382  0.01228896     0.02800
H271        H  0.49880371  0.81346762  0.95417895     0.07900
H272        H  0.46088520  0.76547887  0.03298495     0.06800
N273        N  0.02848077  0.22292949  0.95791855    -0.27600
N274        N  0.06510322  0.22339633  0.96701536    -0.35500
C275        C  0.08877710  0.22514884  0.94370604     0.00700
C276        C  0.06530497  0.22610836  0.91925734     0.06700
C277        C  0.02766848  0.22432059  0.92949962    -0.06400
H278        H  0.12027288  0.22755432  0.94452635     0.07400
H279        H  0.00100011  0.22697497  0.91721044     0.08600
Cu280      Cu  0.07696556  0.22517199  0.01153630     0.44200
Cu281      Cu  0.97874783  0.23437258  0.98107901     0.42000
Cu282      Cu  0.99399534  0.27730026  0.04512066     0.43900
N283        N  0.06664088  0.22808748  0.05625859    -0.35000
N284        N  0.03619032  0.24716561  0.06710391    -0.29300
C285        C  0.03366413  0.24056978  0.09512955    -0.05400
C286        C  0.06390878  0.21639433  0.10300529     0.06800
C287        C  0.08468702  0.20906359  0.07789782     0.00600
H288        H  0.01026084  0.25139163  0.10864658     0.08300
H289        H  0.10936800  0.18944465  0.07527795     0.07400
N290        N  0.95000867  0.29707781  0.01917404    -0.36500
N291        N  0.94283142  0.27926400  0.99463895    -0.28600
C292        C  0.92133124  0.30309851  0.97817158    -0.03900
C293        C  0.91493843  0.33781589  0.99319184     0.04700
C294        C  0.93307119  0.33258180  0.01929550     0.02800
H295        H  0.91616365  0.29802671  0.95564249     0.07900
H296        H  0.93897189  0.35522955  0.03511661     0.06800
C297        C  0.09992704  0.63599209  0.15976642     0.79900
N298        N  0.09732682  0.63452289  0.13064841    -0.78400
C299        C  0.06172833  0.63512965  0.11775316     0.82300
N300        N  0.02901847  0.63755819  0.13398897    -0.78400
C301        C  0.03120597  0.64076549  0.16277889     0.82400
N302        N  0.06674612  0.63990881  0.17553684    -0.80100
O303        O  0.35037701  0.67894744  0.28334523    -0.73300
O304        O  0.24930172  0.66081310  0.24148119    -0.74300
O305        O  0.29510264  0.61794021  0.28085711    -0.62900
O306        O  0.30448729  0.72275550  0.24409081    -0.71300
O307        O  0.33718077  0.69512521  0.20850166    -0.70800
O308        O  0.32623356  0.58914604  0.24464752    -0.62100
O309        O  0.28180832  0.63392130  0.20518240    -0.74600
O310        O  0.38200931  0.65028470  0.24746452    -0.73400
Cu311      Cu  0.29861850  0.67105475  0.26367129     1.04600
Cu312      Cu  0.33290674  0.64116978  0.22518199     1.04300
C313        C  0.38231729  0.66710000  0.27196899     0.92900
C314        C  0.24973520  0.64502832  0.21656775     0.92100
C315        C  0.30974152  0.58731508  0.26905671     0.84200
C316        C  0.32238444  0.72575777  0.22028935     0.90500
O317        O  0.82132214  0.73122833  0.24602697    -0.73300
O318        O  0.83229779  0.62509155  0.28028355    -0.74300
O319        O  0.87923703  0.67139663  0.24456368    -0.62900
O320        O  0.77389055  0.68383965  0.28165508    -0.71300
O321        O  0.74518873  0.65813822  0.24330670    -0.70800
O322        O  0.85034137  0.64387745  0.20714661    -0.62100
O323        O  0.80250556  0.59780785  0.24296082    -0.74600
O324        O  0.79344839  0.70462285  0.20781251    -0.73400
Cu325      Cu  0.82757494  0.67891149  0.26444598     1.04600
Cu326      Cu  0.79686808  0.65027132  0.22394960     1.04300
C327        C  0.80603359  0.73487953  0.22130830     0.92900
C328        C  0.81921737  0.59472476  0.26725484     0.92100
C329        C  0.88147249  0.65482843  0.21995791     0.84200
C330        C  0.74300399  0.67256637  0.26852633     0.90500
C331        C  0.81046036  0.88575520  0.16605469     0.79900
N332        N  0.80716293  0.88390122  0.13734656    -0.78400
C333        C  0.80809139  0.91669152  0.12132917     0.82300
N334        N  0.81190662  0.95238980  0.13441497    -0.78400
C335        C  0.81456979  0.95476298  0.16352885     0.82400
N336        N  0.81412288  0.92125137  0.17906345    -0.80100
O337        O  0.78090911  0.14142728  0.29715508    -0.73300
O338        O  0.88664144  0.15906983  0.26094340    -0.74300
O339        O  0.83830325  0.20135052  0.30091051    -0.62900
O340        O  0.82972582  0.09933860  0.25744469    -0.71300
O341        O  0.80109198  0.12952029  0.22157134    -0.70800
O342        O  0.80866836  0.23135108  0.26524663    -0.62100
O343        O  0.85714219  0.18953028  0.22558133    -0.74600
O344        O  0.75197336  0.17122689  0.26122440    -0.73400
Cu345      Cu  0.83480538  0.14922413  0.28039797     1.04600
Cu346      Cu  0.80371383  0.18147010  0.24223733     1.04300
C347        C  0.74965507  0.15396867  0.28519906     0.92900
C348        C  0.88848988  0.17663106  0.23698280     0.92100
C349        C  0.82449057  0.23261123  0.29000013     0.84200
C350        C  0.81542992  0.09828509  0.23224682     0.90500
C351        C  0.33128409  0.94826971  0.16493686     0.79900
N352        N  0.33396565  0.94631825  0.13582437    -0.78400
C353        C  0.33292105  0.91098849  0.12199468     0.82300
N354        N  0.32904816  0.87785122  0.13727938    -0.78400
C355        C  0.32691338  0.87881825  0.16607800     0.82400
N356        N  0.32811373  0.91415397  0.17977440    -0.80100
C357        C  0.03680359  0.18389117  0.17525244     0.79900
N358        N  0.07249034  0.17828954  0.18722866    -0.78400
C359        C  0.10598277  0.18304972  0.17188860     0.82300
N360        N  0.10331121  0.19331622  0.14387909    -0.78400
C361        C  0.06778152  0.19920693  0.13162888     0.82400
N362        N  0.03494787  0.19475915  0.14750966    -0.80100
O363        O  0.28420379  0.18481360  0.22401428    -0.73300
O364        O  0.38650281  0.16749651  0.26455618    -0.74300
O365        O  0.34238854  0.12565347  0.22207930    -0.62900
O366        O  0.32817392  0.22647620  0.26676163    -0.71300
O367        O  0.29705522  0.19487245  0.30087678    -0.70800
O368        O  0.31234279  0.09401977  0.25667082    -0.62100
O369        O  0.35606685  0.13640013  0.29923071    -0.74600
O370        O  0.25360052  0.15299954  0.25830660    -0.73400
Cu371      Cu  0.33637878  0.17724290  0.24319138     1.04600
Cu372      Cu  0.30369795  0.14341505  0.27991813     1.04300
C373        C  0.25268907  0.17129932  0.23464914     0.92900
C374        C  0.38757902  0.14977596  0.28842563     0.92100
C375        C  0.32922680  0.09372687  0.23233694     0.84200
C376        C  0.31082523  0.22667962  0.29097099     0.90500
C377        C  0.53460970  0.13893646  0.35171638     0.79900
N378        N  0.56844674  0.14264344  0.33651472    -0.78400
C379        C  0.60391763  0.13672229  0.34891446     0.82300
N380        N  0.60525500  0.12805190  0.37700839    -0.78400
C381        C  0.57223997  0.12457372  0.39269813     0.82400
N382        N  0.53689486  0.12994027  0.38000965    -0.80100
C383        C  0.29415269  0.44644979  0.33479692     0.79900
N384        N  0.28596756  0.45404583  0.36245807    -0.78400
C385        C  0.28452256  0.42536876  0.38212626     0.82300
N386        N  0.29047992  0.38737236  0.37372162    -0.78400
C387        C  0.29841240  0.37919460  0.34557408     0.82400
N388        N  0.30009833  0.40881667  0.32634863    -0.80100
C389        C  0.83141341  0.38690610  0.34280900     0.79900
N390        N  0.83969489  0.39456907  0.37093657    -0.78400
C391        C  0.84566012  0.43233007  0.37977293     0.82300
N392        N  0.84436662  0.46152551  0.36045810    -0.78400
C393        C  0.83714111  0.45416082  0.33261355     0.82400
N394        N  0.83011535  0.41686360  0.32387231    -0.80100
C395        C  0.59765028  0.68224786  0.33159451     0.79900
N396        N  0.56216916  0.67645138  0.31929710    -0.78400
C397        C  0.52855315  0.68270704  0.33440355     0.82300
N398        N  0.53093199  0.69490536  0.36224424    -0.78400
C399        C  0.56640481  0.70134475  0.37442417     0.82400
N400        N  0.59918687  0.69564276  0.35879108    -0.80100
C401        C  0.49610540  0.13903184  0.30634132    -0.20600
C402        C  0.49597892  0.14127241  0.33643395    -0.07200
C403        C  0.45933463  0.14560451  0.35049479     0.13700
C404        C  0.42474014  0.14755164  0.33418417    -0.20700
C405        C  0.42525624  0.14587151  0.30419479    -0.07200
C406        C  0.46159437  0.14134998  0.29014134     0.13600
C407        C  0.46441748  0.13780219  0.25806347    -0.24000
H408        H  0.52354928  0.13525290  0.29513083     0.14900
H409        H  0.39695325  0.15123920  0.34499597     0.15000
C410        C  0.45587526  0.14914979  0.38252756    -0.24000
H411        H  0.49476868  0.13154168  0.25092474     0.05200
H412        H  0.45528144  0.16569307  0.24806067     0.08400
H413        H  0.44558198  0.11343918  0.25026017     0.08400
H414        H  0.47368700  0.17418904  0.39047348     0.08400
H415        H  0.46561507  0.12152329  0.39263380     0.08400
H416        H  0.42523716  0.15448527  0.38939719     0.05200
C417        C  0.33809299  0.29158678  0.30424531    -0.20600
C418        C  0.30809098  0.26404212  0.30768576    -0.07200
C419        C  0.27673904  0.27326573  0.32647167     0.13700
C420        C  0.27529753  0.31048610  0.33986443    -0.20700
C421        C  0.30435750  0.33852747  0.33507748    -0.07200
C422        C  0.33677140  0.32848731  0.31775692     0.13600
C423        C  0.37050193  0.35630338  0.31381419    -0.24000
H424        H  0.36279285  0.28428642  0.29069134     0.14900
H425        H  0.25055114  0.31833600  0.35321609     0.15000
C426        C  0.24388619  0.24495690  0.33167557    -0.24000
H427        H  0.39465783  0.34244711  0.30144292     0.05200
H428        H  0.38229790  0.36534588  0.33498962     0.08400
H429        H  0.36094806  0.38261017  0.30197913     0.08400
H430        H  0.25526420  0.21828419  0.34221863     0.08400
H431        H  0.22988897  0.23678665  0.31112375     0.08400
H432        H  0.22103256  0.25789338  0.34577850     0.05200
C433        C  0.14480943  0.18561397  0.21687433    -0.20600
C434        C  0.14458586  0.18097732  0.18693431    -0.07200
C435        C  0.18079339  0.17442848  0.17279468     0.13700
C436        C  0.21543422  0.17207390  0.18898257    -0.20700
C437        C  0.21520737  0.17580669  0.21889273    -0.07200
C438        C  0.17936205  0.18324029  0.23292857     0.13600
C439        C  0.17734029  0.19044484  0.26470462    -0.24000
H440        H  0.11766957  0.19157665  0.22801308     0.14900
H441        H  0.24294805  0.16647519  0.17820344     0.15000
C442        C  0.18355719  0.16883917  0.14086696    -0.24000
H443        H  0.14733693  0.19834263  0.27179704     0.05200
H444        H  0.19688989  0.21515183  0.27053320     0.08400
H445        H  0.18614616  0.16371190  0.27635508     0.08400
H446        H  0.17476788  0.19620454  0.12997144     0.08400
H447        H  0.16454120  0.14418698  0.13386296     0.08400
H448        H  0.21384423  0.16182629  0.13394007     0.05200
C449        C  0.33654313  0.98538536  0.21111013    -0.20600
C450        C  0.33299073  0.98666968  0.18111878    -0.07200
C451        C  0.33057474  0.02414917  0.16814838     0.13700
C452        C  0.33043335  0.05828369  0.18547103    -0.20700
C453        C  0.33229743  0.05652480  0.21540237    -0.07200
C454        C  0.33609168  0.01943232  0.22830847     0.13600
C455        C  0.34061209  0.01523546  0.26018195    -0.24000
H456        H  0.33948561  0.95736260  0.22151017     0.14900
H457        H  0.32778132  0.08670898  0.17552289     0.15000
C458        C  0.32746609  0.02911274  0.13627013    -0.24000
H459        H  0.34629962  0.98434662  0.26626019     0.05200
H460        H  0.31343177  0.02466779  0.27120639     0.08400
H461        H  0.36561149  0.03320761  0.26786911     0.08400
H462        H  0.30089651  0.01411840  0.12806815     0.08400
H463        H  0.35394684  0.01701560  0.12565153     0.08400
H464        H  0.32518631  0.06046957  0.13029621     0.05200
C465        C  0.95889673  0.15782289  0.23100378    -0.20600
C466        C  0.92691903  0.18065250  0.22190762    -0.07200
C467        C  0.93221077  0.20537869  0.19802595     0.13700
C468        C  0.96840747  0.20582507  0.18392027    -0.20700
C469        C  0.00007632  0.18247182  0.19259282    -0.07200
C470        C  0.99520521  0.15831270  0.21677339     0.13600
C471        C  0.02742218  0.13189378  0.22729264    -0.24000
H472        H  0.95532139  0.13871492  0.24912090     0.14900
H473        H  0.97192213  0.22483616  0.16573771     0.15000
C474        C  0.90030149  0.23186092  0.18701484    -0.24000
H475        H  0.01762485  0.11341966  0.24527561     0.05200
H476        H  0.05234615  0.14975732  0.23516219     0.08400
H477        H  0.03724056  0.11196839  0.20976304     0.08400
H478        H  0.88993441  0.25171443  0.20441808     0.08400
H479        H  0.87571986  0.21405048  0.17849510     0.08400
H480        H  0.91060904  0.25056317  0.16931098     0.05200
C481        C  0.79656273  0.29845785  0.29995929    -0.20600
C482        C  0.82570458  0.27064281  0.30596151    -0.07200
C483        C  0.85511524  0.28038898  0.32622670     0.13700
C484        C  0.85518412  0.31802068  0.33900760    -0.20700
C485        C  0.82696858  0.34621096  0.33189300    -0.07200
C486        C  0.79678341  0.33596395  0.31256299     0.13600
C487        C  0.76419630  0.36413870  0.30544330    -0.24000
H488        H  0.77345850  0.29092757  0.28502686     0.14900
H489        H  0.87832317  0.32603101  0.35378077     0.15000
C490        C  0.88746337  0.25218735  0.33365510    -0.24000
H491        H  0.74142323  0.35001230  0.29191269     0.05200
H492        H  0.77568388  0.38940697  0.29341454     0.08400
H493        H  0.74997271  0.37476519  0.32540151     0.08400
H494        H  0.90348220  0.24321224  0.31401107     0.08400
H495        H  0.87513934  0.22595741  0.34411312     0.08400
H496        H  0.90887641  0.26557071  0.34870152     0.05200
C497        C  0.64210041  0.16444473  0.30841942    -0.20600
C498        C  0.64088022  0.13934315  0.33197388    -0.07200
C499        C  0.67501348  0.11751087  0.33877360     0.13700
C500        C  0.70920342  0.12252805  0.32266179    -0.20700
C501        C  0.71098569  0.14862895  0.29972209    -0.07200
C502        C  0.67645605  0.16952562  0.29228946     0.13600
C503        C  0.67531477  0.19796862  0.26790811    -0.24000
H504        H  0.61612186  0.18098961  0.30292767     0.14900
H505        H  0.73504925  0.10588347  0.32829909     0.15000
C506        C  0.67597471  0.08802822  0.36253615    -0.24000
H507        H  0.64619143  0.21210647  0.26573217     0.05200
H508        H  0.68155198  0.18227983  0.24749404     0.08400
H509        H  0.69706289  0.22162420  0.27154993     0.08400
H510        H  0.65191772  0.06653961  0.35967142     0.08400
H511        H  0.67336492  0.10323022  0.38353279     0.08400
H512        H  0.70385790  0.07127517  0.36288844     0.05200
C513        C  0.83773901  0.99418045  0.20487758    -0.20600
C514        C  0.81666308  0.99300599  0.17913378    -0.07200
C515        C  0.79580249  0.02684177  0.17071677     0.13700
C516        C  0.79582506  0.06028725  0.18863326    -0.20700
C517        C  0.81620214  0.06122658  0.21480850    -0.07200
C518        C  0.83798403  0.02751895  0.22275838     0.13600
C519        C  0.86200178  0.02589443  0.24977905    -0.24000
H520        H  0.85415140  0.96846945  0.21120983     0.14900
H521        H  0.77940634  0.08588271  0.18210875     0.15000
C522        C  0.77234552  0.02775073  0.14346849    -0.24000
H523        H  0.87762561  0.99745976  0.25188052     0.05200
H524        H  0.84274479  0.02924831  0.26871397     0.08400
H525        H  0.88444155  0.04935604  0.24973437     0.08400
H526        H  0.75029711  0.00391959  0.14342792     0.08400
H527        H  0.79204064  0.02415467  0.12480299     0.08400
H528        H  0.75654921  0.05602029  0.14099630     0.05200
C529        C  0.83115836  0.80299982  0.21770247    -0.20600
C530        C  0.80440633  0.77436280  0.20814093    -0.07200
C531        C  0.77771825  0.78408720  0.18613673     0.13700
C532        C  0.77978505  0.82120932  0.17364917    -0.20700
C533        C  0.80743732  0.84914919  0.18254440    -0.07200
C534        C  0.83303800  0.84018908  0.20522219     0.13600
C535        C  0.86354157  0.86888806  0.21552372    -0.24000
H536        H  0.85159326  0.79593074  0.23458125     0.14900
H537        H  0.75982436  0.82839501  0.15647759     0.15000
C538        C  0.74659343  0.75606762  0.17577260    -0.24000
H539        H  0.88240671  0.85617680  0.23238256     0.05200
H540        H  0.84917197  0.89536369  0.22474789     0.08400
H541        H  0.88260748  0.87741591  0.19747958     0.08400
H542        H  0.72846042  0.74654097  0.19403543     0.08400
H543        H  0.76021182  0.73020394  0.16510903     0.08400
H544        H  0.72679410  0.76987464  0.15996968     0.05200
C545        C  0.63486284  0.68684670  0.28598434    -0.20600
C546        C  0.63448330  0.67739392  0.31512062    -0.07200
C547        C  0.66975180  0.66500036  0.32825451     0.13700
C548        C  0.70433408  0.66400046  0.31229833    -0.20700
C549        C  0.70493849  0.67440099  0.28347690    -0.07200
C550        C  0.66964225  0.68550570  0.26997303     0.13600
C551        C  0.66867081  0.69751674  0.23912562    -0.24000
H552        H  0.60801462  0.69633877  0.27585660     0.14900
H553        H  0.73125784  0.65462595  0.32240632     0.15000
C554        C  0.67138925  0.65156716  0.35883156    -0.24000
H555        H  0.63905960  0.70733883  0.23254141     0.05200
H556        H  0.67698667  0.67235375  0.22513031     0.08400
H557        H  0.68921183  0.72218114  0.23581539     0.08400
H558        H  0.64916784  0.62845471  0.36232975     0.08400
H559        H  0.66632314  0.67665567  0.37369150     0.08400
H560        H  0.70039702  0.63899376  0.36428809     0.05200
C561        C  0.85946314  0.54936613  0.29549749    -0.20600
C562        C  0.82444126  0.55605537  0.28071397    -0.07200
C563        C  0.79489811  0.52708263  0.28089807     0.13700
C564        C  0.80074259  0.49277805  0.29674890    -0.20700
C565        C  0.83499742  0.48723971  0.31269720    -0.07200
C566        C  0.86514351  0.51541286  0.31148678     0.13600
C567        C  0.90355728  0.50971849  0.32675809    -0.24000
H568        H  0.88233968  0.57128795  0.29495515     0.14900
H569        H  0.77769234  0.47110506  0.29787332     0.15000
C570        C  0.75639504  0.53310293  0.26592254    -0.24000
H571        H  0.92462823  0.53341822  0.32185567     0.05200
H572        H  0.91688804  0.48135068  0.32000859     0.08400
H573        H  0.89910876  0.51000181  0.35019752     0.08400
H574        H  0.76115203  0.53528150  0.24256477     0.08400
H575        H  0.74219385  0.56037679  0.27404863     0.08400
H576        H  0.73604819  0.50833100  0.26952875     0.05200
C577        C  0.30840547  0.79783896  0.22040845    -0.20600
C578        C  0.32538773  0.76502565  0.20648843    -0.07200
C579        C  0.34396819  0.77072732  0.17977221     0.13700
C580        C  0.34464232  0.80834202  0.16800340    -0.20700
C581        C  0.32709471  0.84089484  0.18163849    -0.07200
C582        C  0.30890732  0.83549819  0.20840417     0.13600
C583        C  0.28878579  0.86871962  0.22409314    -0.24000
H584        H  0.29410762  0.79406655  0.24081064     0.14900
H585        H  0.35900136  0.81224891  0.14762598     0.15000
C586        C  0.36295268  0.73773368  0.16298437    -0.24000
H587        H  0.27423122  0.85863251  0.24386117     0.05200
H588        H  0.26608440  0.88195105  0.21022412     0.08400
H589        H  0.31047803  0.89129176  0.23048473     0.08400
H590        H  0.34084983  0.71515092  0.15731444     0.08400
H591        H  0.38696456  0.72456809  0.17566369     0.08400
H592        H  0.37590095  0.74800799  0.14267637     0.05200
C593        C  0.41952456  0.66993040  0.31751293    -0.20600
C594        C  0.41975141  0.67207474  0.28758920    -0.07200
C595        C  0.45558837  0.67842339  0.27337419     0.13700
C596        C  0.49000180  0.68215334  0.28942207    -0.20700
C597        C  0.49014227  0.67939849  0.31939482    -0.07200
C598        C  0.45410563  0.67315670  0.33362390     0.13600
C599        C  0.45149619  0.66864037  0.36555547    -0.24000
H600        H  0.39208044  0.66487926  0.32838279     0.14900
H601        H  0.51714832  0.68741704  0.27824354     0.15000
C602        C  0.45797618  0.68236847  0.24135399    -0.24000
H603        H  0.42137748  0.66136504  0.37250087     0.05200
H604        H  0.45968989  0.69650855  0.37646838     0.08400
H605        H  0.47104754  0.64452650  0.37252710     0.08400
H606        H  0.43782027  0.70585940  0.23415948     0.08400
H607        H  0.45030333  0.65414631  0.23073247     0.08400
H608        H  0.48789956  0.69012150  0.23425030     0.05200
C609        C  0.29266411  0.51637734  0.27165850    -0.20600
C610        C  0.30872122  0.55004133  0.28463195    -0.07200
C611        C  0.32295569  0.54815715  0.31287916     0.13700
C612        C  0.31908192  0.51330035  0.32794626    -0.20700
C613        C  0.30121852  0.48005132  0.31572301    -0.07200
C614        C  0.28848177  0.48129474  0.28697154     0.13600
C615        C  0.26896253  0.44660092  0.27281416    -0.24000
H616        H  0.28213131  0.51798965  0.24986407     0.14900
H617        H  0.32969176  0.51221451  0.34974988     0.15000
C618        C  0.34301396  0.58261324  0.32714256    -0.24000
H619        H  0.25938526  0.45333814  0.25073686     0.05200
H620        H  0.24279092  0.43804165  0.28523797     0.08400
H621        H  0.28967327  0.42152641  0.27153838     0.08400
H622        H  0.32226194  0.60741859  0.32990934     0.08400
H623        H  0.36815782  0.59202946  0.31395444     0.08400
H624        H  0.35432121  0.57513311  0.34864642     0.05200
C625        C  0.17130590  0.64924100  0.15932366    -0.20600
C626        C  0.13870633  0.63498280  0.17414989    -0.07200
C627        C  0.14401808  0.62073390  0.20230542     0.13700
C628        C  0.18077527  0.62412866  0.21537714    -0.20700
C629        C  0.21270535  0.63985041  0.20087541    -0.07200
C630        C  0.20826732  0.65158748  0.17222899     0.13600
C631        C  0.24193618  0.66814191  0.15553786    -0.24000
H632        H  0.16773097  0.65958724  0.13769111     0.14900
H633        H  0.18473687  0.61427880  0.23712204     0.15000
C634        C  0.11191280  0.60064904  0.21859237    -0.24000
H635        H  0.23277316  0.67747072  0.13389365     0.05200
H636        H  0.26508336  0.64553972  0.15281940     0.08400
H637        H  0.25412933  0.69412429  0.16695278     0.08400
H638        H  0.09948423  0.57637524  0.20544176     0.08400
H639        H  0.08868943  0.62189417  0.22453397     0.08400
H640        H  0.12287372  0.58780767  0.23877403     0.05200
C641        C  0.95217845  0.67135447  0.21597337    -0.20600
C642        C  0.92032811  0.64882486  0.20617472    -0.07200
C643        C  0.92648178  0.62144893  0.18348388     0.13700
C644        C  0.96336953  0.61893432  0.17058105    -0.20700
C645        C  0.99462012  0.64251052  0.17966329    -0.07200
C646        C  0.98916749  0.66860364  0.20304129     0.13600
C647        C  0.02148712  0.69499502  0.21362668    -0.24000
H648        H  0.94793931  0.69207879  0.23344552     0.14900
H649        H  0.96780810  0.59849532  0.15293584     0.15000
C650        C  0.89486750  0.59424166  0.17270376    -0.24000
H651        H  0.01139937  0.71500873  0.23103102     0.05200
H652        H  0.03234920  0.71328054  0.19588218     0.08400
H653        H  0.04580242  0.67716236  0.22224536     0.08400
H654        H  0.87106176  0.61134232  0.16259356     0.08400
H655        H  0.88316234  0.57682036  0.19063475     0.08400
H656        H  0.90600159  0.57322071  0.15629141     0.05200
C657        C  0.34601912  0.10599683  0.82743168    -0.20600
C658        C  0.34034521  0.10579283  0.79770891    -0.07200
C659        C  0.33589739  0.06925887  0.78328208     0.13700
C660        C  0.33699906  0.03452647  0.79893439    -0.20700
C661        C  0.34254420  0.03443841  0.82874958    -0.07200
C662        C  0.34708526  0.07113756  0.84318361     0.13600
C663        C  0.35312381  0.07460941  0.87502891    -0.24000
H664        H  0.34914314  0.13385097  0.83861103     0.14900
H665        H  0.33339681  0.00701346  0.78742625     0.15000
C666        C  0.33067161  0.06595104  0.75130933    -0.24000
H667        H  0.35595589  0.10564131  0.88225228     0.05200
H668        H  0.38043573  0.05926002  0.88123675     0.08400
H669        H  0.32769623  0.06207908  0.88639563     0.08400
H670        H  0.35514944  0.08083846  0.74034490     0.08400
H671        H  0.30234139  0.07912623  0.74492390     0.08400
H672        H  0.33038494  0.03493270  0.74374039     0.05200
C673        C  0.28586778  0.32040862  0.69537377    -0.20600
C674        C  0.31669570  0.31724870  0.71513823    -0.07200
C675        C  0.34351045  0.34867456  0.71795264     0.13700
C676        C  0.33852946  0.38212438  0.70114424    -0.20700
C677        C  0.30783309  0.38508049  0.68137173    -0.07200
C678        C  0.28099723  0.35384722  0.67854674     0.13600
C679        C  0.24629513  0.35606757  0.65875713    -0.24000
H680        H  0.26511063  0.29659599  0.69320366     0.14900
H681        H  0.35893410  0.40625118  0.70337209     0.15000
C682        C  0.37809991  0.34703664  0.73786856    -0.24000
H683        H  0.22718862  0.32993116  0.66055057     0.05200
H684        H  0.25630827  0.35750868  0.63627419     0.08400
H685        H  0.22845652  0.38242260  0.66408495     0.08400
H686        H  0.39636195  0.32100920  0.73255136     0.08400
H687        H  0.36797552  0.34554028  0.76032667     0.08400
H688        H  0.39685775  0.37343661  0.73612767     0.05200
C689        C  0.43688608  0.17287262  0.69046881    -0.20600
C690        C  0.43514882  0.19874641  0.71413028    -0.07200
C691        C  0.46934699  0.22009308  0.72161526     0.13700
C692        C  0.50382960  0.21419124  0.70585120    -0.20700
C693        C  0.50586490  0.18754342  0.68273943    -0.07200
C694        C  0.47152154  0.16691118  0.67475186     0.13600
C695        C  0.47102243  0.13755701  0.65038898    -0.24000
H696        H  0.41099127  0.15655551  0.68438640     0.14900
H697        H  0.52972505  0.23056965  0.71184328     0.15000
C698        C  0.47027602  0.24953220  0.74594292    -0.24000
H699        H  0.44215988  0.12301252  0.64814469     0.05200
H700        H  0.49319763  0.11432152  0.65409353     0.08400
H701        H  0.47707449  0.15253558  0.62997191     0.08400
H702        H  0.46504703  0.23458270  0.76649202     0.08400
H703        H  0.44782413  0.27254243  0.74252944     0.08400
H704        H  0.49901630  0.26443625  0.74772809     0.05200
C705        C  0.22517026  0.23200008  0.83045514    -0.20600
C706        C  0.22446404  0.22538438  0.80066185    -0.07200
C707        C  0.18769253  0.22184275  0.78696064     0.13700
C708        C  0.15340663  0.22427680  0.80324993    -0.20700
C709        C  0.15377823  0.23059297  0.83308868    -0.07200
C710        C  0.19056859  0.23462396  0.84682061     0.13600
C711        C  0.19403548  0.24225761  0.87848178    -0.24000
H712        H  0.25312281  0.23478193  0.84117448     0.14900
H713        H  0.12578786  0.22099494  0.79218113     0.15000
C714        C  0.18366775  0.21633664  0.75503902    -0.24000
H715        H  0.22494304  0.24595577  0.88524408     0.05200
H716        H  0.18198401  0.21711295  0.89040424     0.08400
H717        H  0.17808181  0.26958690  0.88437690     0.08400
H718        H  0.19586584  0.18746081  0.74834941     0.08400
H719        H  0.19898543  0.24035632  0.74386295     0.08400
H720        H  0.15265170  0.21688174  0.74802790     0.05200
C721        C  0.37472419  0.82399946  0.80980860    -0.20600
C722        C  0.34973689  0.82070439  0.78607669    -0.07200
C723        C  0.32679427  0.85380351  0.77843073     0.13700
C724        C  0.32810840  0.88799219  0.79557191    -0.20700
C725        C  0.35132222  0.89019091  0.82026548    -0.07200
C726        C  0.37585225  0.85799115  0.82695864     0.13600
C727        C  0.40389364  0.85901153  0.85183120    -0.24000
H728        H  0.39310094  0.79934157  0.81547611     0.14900
H729        H  0.30984533  0.91284202  0.79012439     0.15000
C730        C  0.29999852  0.85348843  0.75284324    -0.24000
H731        H  0.42332701  0.83285398  0.85199654     0.05200
H732        H  0.38746446  0.85915587  0.87222168     0.08400
H733        H  0.42275861  0.88538143  0.85058647     0.08400
H734        H  0.27764905  0.83023718  0.75506999     0.08400
H735        H  0.31723262  0.84842141  0.73306448     0.08400
H736        H  0.28427519  0.88182198  0.75048441     0.05200
C737        C  0.44024828  0.71274123  0.67479693    -0.20600
C738        C  0.44109148  0.71298999  0.70488362    -0.07200
C739        C  0.47791154  0.71193501  0.71870813     0.13700
C740        C  0.51215150  0.71015018  0.70230109    -0.20700
C741        C  0.51168557  0.70952167  0.67215284    -0.07200
C742        C  0.47475844  0.71089583  0.65826915     0.13600
C743        C  0.47092008  0.71063070  0.62620935    -0.24000
H744        H  0.41221477  0.71342704  0.66402546     0.14900
H745        H  0.53977443  0.70910409  0.71356241     0.15000
C746        C  0.48199345  0.71357306  0.75081814    -0.24000
H747        H  0.43991924  0.71249079  0.61928905     0.05200
H748        H  0.48314838  0.68294122  0.61719220     0.08400
H749        H  0.48643173  0.73623327  0.61724581     0.08400
H750        H  0.46971965  0.68663701  0.76032147     0.08400
H751        H  0.46675053  0.73994669  0.75948633     0.08400
H752        H  0.51303180  0.71537086  0.75767022     0.05200
C753        C  0.28475807  0.59559443  0.69679147    -0.20600
C754        C  0.31779972  0.60054506  0.71423702    -0.07200
C755        C  0.34411436  0.56870556  0.71751998     0.13700
C756        C  0.33689435  0.53323707  0.70284008    -0.20700
C757        C  0.30452975  0.52888801  0.68465635    -0.07200
C758        C  0.27774427  0.56034775  0.68197978     0.13600
C759        C  0.24120969  0.55695136  0.66409985    -0.24000
H760        H  0.26426858  0.61968187  0.69454904     0.14900
H761        H  0.35732960  0.50906817  0.70489733     0.15000
C762        C  0.38066512  0.57214647  0.73537707    -0.24000
H763        H  0.22207523  0.58315220  0.66659513     0.05200
H764        H  0.22416816  0.53088208  0.67059802     0.08400
H765        H  0.24900403  0.55449129  0.64120453     0.08400
H766        H  0.37284953  0.57712404  0.75812775     0.08400
H767        H  0.39881635  0.59680855  0.72769296     0.08400
H768        H  0.39871054  0.54503268  0.73417598     0.05200
C769        C  0.22603595  0.67490609  0.81351506    -0.20600
C770        C  0.23126579  0.70514868  0.79371307    -0.07200
C771        C  0.20083362  0.73299764  0.79016861     0.13700
C772        C  0.16599008  0.72910844  0.80573172    -0.20700
C773        C  0.16050516  0.69850585  0.82509745    -0.07200
C774        C  0.19113271  0.67109361  0.82913037     0.13600
C775        C  0.18675634  0.63676200  0.84882588    -0.24000
H776        H  0.24916868  0.65352428  0.81638804     0.14900
H777        H  0.14265295  0.75024747  0.80272088     0.15000
C778        C  0.20501981  0.76765136  0.77074598    -0.24000
H779        H  0.21270571  0.61712158  0.84809105     0.05200
H780        H  0.16082822  0.61915860  0.84249509     0.08400
H781        H  0.18341438  0.64737238  0.87118836     0.08400
H782        H  0.20743279  0.75755133  0.74820356     0.08400
H783        H  0.23132106  0.78474976  0.77691934     0.08400
H784        H  0.17939440  0.78766361  0.77213421     0.05200
C785        C  0.97282068  0.72286294  0.78021045    -0.20600
C786        C  0.94358839  0.69553766  0.78707445    -0.12400
C787        C  0.95200159  0.66662213  0.80770265     0.13700
C788        C  0.98828946  0.66701795  0.82162408    -0.20700
C789        C  0.01684923  0.69527610  0.81569362    -0.07200
C790        C  0.00929219  0.72313654  0.79425489     0.13600
C791        C  0.03874632  0.75416711  0.78692413    -0.24000
H792        H  0.96670850  0.74492199  0.76433977     0.14900
H793        H  0.99429699  0.64507383  0.83761259     0.15000
C794        C  0.92341886  0.63465848  0.81502437    -0.24000
H795        H  0.02729131  0.77464573  0.77064190     0.05200
H796        H  0.06554430  0.74021751  0.77809251     0.08400
H797        H  0.04628802  0.77160323  0.80634151     0.08400
H798        H  0.91443463  0.61863680  0.79529752     0.08400
H799        H  0.89741751  0.64739354  0.82585057     0.08400
H800        H  0.93636261  0.61292714  0.82979793     0.05200
C801        C  0.87541641  0.58530621  0.69585794    -0.20600
C802        C  0.84213486  0.59543189  0.71177665    -0.07200
C803        C  0.81034803  0.56893954  0.71274180     0.13700
C804        C  0.81285472  0.53299942  0.69784691    -0.20700
C805        C  0.84580283  0.52332595  0.68144849    -0.07200
C806        C  0.87771157  0.54961060  0.68069991     0.13600
C807        C  0.91463972  0.53989939  0.66455298    -0.24000
H808        H  0.89975724  0.60556225  0.69521275     0.14900
H809        H  0.78840888  0.51285175  0.69821265     0.15000
C810        C  0.77284860  0.57922446  0.72797344    -0.24000
H811        H  0.93752647  0.56249998  0.66805603     0.05200
H812        H  0.90854890  0.53848292  0.64132693     0.08400
H813        H  0.92650616  0.51131959  0.67174115     0.08400
H814        H  0.76087491  0.60695877  0.71933909     0.08400
H815        H  0.77820160  0.58260695  0.75124061     0.08400
H816        H  0.75035012  0.55610096  0.72501468     0.05200
C817        C  0.72237961  0.73615404  0.68633680    -0.20600
C818        C  0.72547759  0.71371183  0.71123579    -0.07200
C819        C  0.69187891  0.69324879  0.72086100     0.13700
C820        C  0.65738523  0.69421832  0.70451632    -0.20700
C821        C  0.65532658  0.71485462  0.67886910    -0.07200
C822        C  0.68791404  0.73711458  0.67013188     0.13600
C823        C  0.68643402  0.76281546  0.64415157    -0.24000
H824        H  0.74733772  0.75284224  0.67917290     0.14900
H825        H  0.63214160  0.67765707  0.71134497     0.15000
C826        C  0.69179480  0.66959406  0.74785854    -0.24000
H827        H  0.71330066  0.78075023  0.64205510     0.05200
H828        H  0.66115790  0.78322557  0.64576096     0.08400
H829        H  0.68389298  0.74461667  0.62446827     0.08400
H830        H  0.69782559  0.68902559  0.76654055     0.08400
H831        H  0.71406465  0.64595422  0.74650192     0.08400
H832        H  0.66309799  0.65541426  0.75158717     0.05200
C833        C  0.94446349  0.25899117  0.81321323    -0.20600
C834        C  0.94075194  0.22782010  0.79340617    -0.07200
C835        C  0.97355442  0.20299871  0.78836890     0.13700
C836        C  0.00829458  0.20945045  0.80377269    -0.20700
C837        C  0.01109481  0.23939874  0.82444420    -0.07200
C838        C  0.97907335  0.26499758  0.82881788     0.13600
C839        C  0.98146252  0.29904143  0.84962118    -0.24000
H840        H  0.91988570  0.27854121  0.81686030     0.14900
H841        H  0.03294519  0.18982126  0.80059424     0.15000
C842        C  0.97198796  0.16845931  0.76794649    -0.24000
H843        H  0.95451319  0.31727516  0.84927681     0.05200
H844        H  0.00650349  0.31807006  0.84398659     0.08400
H845        H  0.98531384  0.28825088  0.87169268     0.08400
H846        H  0.96711203  0.17880678  0.74585327     0.08400
H847        H  0.94815795  0.14828478  0.77422072     0.08400
H848        H  0.99970538  0.15140977  0.76790854     0.05200
C849        C  0.83151761  0.30835236  0.68262069    -0.20600
C850        C  0.83524511  0.31056008  0.71246117    -0.07200
C851        C  0.83944085  0.34774982  0.72580473     0.13700
C852        C  0.84016862  0.38142873  0.70894892    -0.20700
C853        C  0.83673483  0.37950499  0.67894936    -0.07200
C854        C  0.83195166  0.34210264  0.66567476     0.13600
C855        C  0.82659571  0.33694724  0.63387484    -0.24000
H856        H  0.82786725  0.27985170  0.67243927     0.14900
H857        H  0.84403872  0.40957826  0.71954804     0.15000
C858        C  0.84451678  0.35239621  0.75769250    -0.24000
H859        H  0.82070894  0.30591093  0.62780334     0.05200
H860        H  0.85355576  0.34573448  0.62251648     0.08400
H861        H  0.80135864  0.35475479  0.62656770     0.08400
H862        H  0.86982790  0.33463351  0.76494139     0.08400
H863        H  0.81761310  0.34296928  0.76884115     0.08400
H864        H  0.84999501  0.38338641  0.76409884     0.05200
C865        C  0.69195283  0.20984382  0.72858359    -0.20600
C866        C  0.72373630  0.18596092  0.72028900    -0.07200
C867        C  0.71776450  0.15727051  0.69849922     0.13700
C868        C  0.68123816  0.15468508  0.68499024    -0.20700
C869        C  0.64999077  0.17970815  0.69232645    -0.07200
C870        C  0.65527668  0.20715390  0.71498804     0.13600
C871        C  0.62312841  0.23467751  0.72444952    -0.24000
H872        H  0.69605112  0.23161693  0.74537711     0.14900
H873        H  0.67723161  0.13291657  0.66817291     0.15000
C874        C  0.74927147  0.12875363  0.68924910    -0.24000
H875        H  0.63309816  0.25531741  0.74148137     0.05200
H876        H  0.59842386  0.21765674  0.73324708     0.08400
H877        H  0.61295642  0.25237026  0.70612288     0.08400
H878        H  0.76036130  0.11251635  0.70801626     0.08400
H879        H  0.77350839  0.14462165  0.67879328     0.08400
H880        H  0.73825817  0.10674436  0.67352088     0.05200
C881        C  0.80505128  0.06008172  0.83923520    -0.20600
C882        C  0.82678448  0.02836914  0.82819543    -0.07200
C883        C  0.85029038  0.03423219  0.80369850     0.13700
C884        C  0.85067746  0.07116991  0.79081598    -0.20700
C885        C  0.82805024  0.10269053  0.80130977    -0.07200
C886        C  0.80505676  0.09695032  0.82614837     0.13600
C887        C  0.77950270  0.12879961  0.83883613    -0.24000
H888        H  0.78686988  0.05570708  0.85785035     0.14900
H889        H  0.86876780  0.07526308  0.77212001     0.15000
C890        C  0.87570332  0.00218177  0.79104663    -0.24000
H891        H  0.76269555  0.11837117  0.85752891     0.05200
H892        H  0.75807184  0.13890981  0.82267849     0.08400
H893        H  0.79778738  0.15371975  0.84634626     0.08400
H894        H  0.85731429  0.97874440  0.78143541     0.08400
H895        H  0.89491142  0.98977368  0.80781034     0.08400
H896        H  0.89476939  0.01327816  0.77377210     0.05200
C897        C  0.84581221  0.88035216  0.79873931    -0.20600
C898        C  0.81514990  0.88511874  0.81838416    -0.07200
C899        C  0.78670416  0.85526588  0.82067434     0.13700
C900        C  0.79096594  0.82068440  0.80449727    -0.20700
C901        C  0.82274034  0.81494878  0.78598163    -0.07200
C902        C  0.85012226  0.84560861  0.78255425     0.13600
C903        C  0.88485608  0.84145893  0.76296856    -0.24000
H904        H  0.86734444  0.90341913  0.79678314     0.14900
H905        H  0.76947586  0.79760226  0.80664189     0.15000
C906        C  0.75136295  0.85966592  0.83967059    -0.24000
H907        H  0.90403642  0.86767198  0.76402505     0.05200
H908        H  0.87482328  0.83801671  0.74053480     0.08400
H909        H  0.90262148  0.81557983  0.76911722     0.08400
H910        H  0.73567501  0.88732896  0.83473190     0.08400
H911        H  0.76038638  0.85971206  0.86240353     0.08400
H912        H  0.73051075  0.83505071  0.83660777     0.05200
C913        C  0.73648437  0.85992410  0.53459290    -0.20600
C914        C  0.75885653  0.84843884  0.51079318    -0.07200
C915        C  0.77724035  0.87744960  0.49434448     0.13700
C916        C  0.76847800  0.91710982  0.49974258    -0.20700
C917        C  0.74179468  0.92825269  0.52115164    -0.07200
C918        C  0.72716552  0.89940837  0.53978404     0.13600
C919        C  0.69866000  0.90911321  0.56338227    -0.24000
H920        H  0.72248944  0.83772444  0.54735580     0.14900
H921        H  0.78028059  0.93934040  0.48585553     0.15000
C922        C  0.80482347  0.86653007  0.47044532    -0.24000
H923        H  0.68848060  0.88240255  0.57446239     0.05200
H924        H  0.67248950  0.92399307  0.55454210     0.08400
H925        H  0.71293549  0.92813706  0.57965823     0.08400
H926        H  0.78948183  0.84937443  0.45360547     0.08400
H927        H  0.82927205  0.84871299  0.47902154     0.08400
H928        H  0.81742274  0.89292528  0.46032466     0.05200
C929        C  0.05499384  0.63844809  0.49696156    -0.20600
C930        C  0.03737111  0.61184040  0.47787250    -0.07200
C931        C  0.06054806  0.59269757  0.45686475     0.13700
C932        C  0.10113665  0.59797103  0.45736017    -0.20700
C933        C  0.11914854  0.62094505  0.47870688    -0.07200
C934        C  0.09558121  0.64352623  0.49748138     0.13600
C935        C  0.11247039  0.67188535  0.51909377    -0.24000
H936        H  0.03718097  0.65352717  0.51282006     0.14900
H937        H  0.11899024  0.58073995  0.44278452     0.15000
C938        C  0.04358195  0.56379742  0.43560636    -0.24000
H939        H  0.09923668  0.70132807  0.51607890     0.05200
H940        H  0.14456054  0.67511670  0.51693509     0.08400
H941        H  0.10577829  0.66179923  0.54099841     0.08400
H942        H  0.02306963  0.57907126  0.42113816     0.08400
H943        H  0.02823854  0.53993593  0.44692423     0.08400
H944        H  0.06652672  0.54996860  0.42203379     0.05200
C945        C  0.59379269  0.75373588  0.97265068    -0.20600
C946        C  0.61216245  0.76653790  0.99790003    -0.07200
C947        C  0.58973427  0.76972221  0.02327533     0.13700
C948        C  0.54889683  0.76632987  0.02150590    -0.20700
C949        C  0.53028749  0.76035942  0.99509127    -0.07200
C950        C  0.55314855  0.75023162  0.97099367     0.13600
C951        C  0.53537919  0.73795443  0.94282081    -0.24000
H952        H  0.61099049  0.74952054  0.95340485     0.14900
H953        H  0.53143931  0.77287996  0.04025950     0.15000
C954        C  0.60768009  0.77999541  0.05177481    -0.24000
H955        H  0.54775951  0.70917344  0.93602630     0.05200
H956        H  0.54227068  0.76003824  0.92635655     0.08400
H957        H  0.50320881  0.73453354  0.94412064     0.08400
H958        H  0.62272753  0.80873181  0.05073735     0.08400
H959        H  0.62854260  0.75665200  0.05801216     0.08400
H960        H  0.58532780  0.78225477  0.06890357     0.05200
C961        C  0.93410978  0.43421380  0.95772452    -0.20600
C962        C  0.90885931  0.45867558  0.97349227    -0.07200
C963        C  0.87968536  0.44170475  0.99067413     0.13700
C964        C  0.87976950  0.40094373  0.99450190    -0.20700
C965        C  0.90791170  0.37698462  0.98122757    -0.07200
C966        C  0.93428702  0.39355161  0.96151862     0.13600
C967        C  0.96495682  0.36928633  0.94626910    -0.24000
H968        H  0.95624427  0.44715247  0.94429869     0.14900
H969        H  0.85935407  0.38798041  0.00931479     0.15000
C970        C  0.84878760  0.46640718  0.00521439    -0.24000
H971        H  0.98417133  0.38758863  0.93278600     0.05200
H972        H  0.95072502  0.34740280  0.93198571     0.08400
H973        H  0.98380057  0.35413662  0.96201132     0.08400
H974        H  0.83291328  0.48387841  0.98903372     0.08400
H975        H  0.86197475  0.48648360  0.02127596     0.08400
H976        H  0.82711344  0.44798790  0.01645708     0.05200
loop_ 
_geom_bond_atom_site_label_1 
_geom_bond_atom_site_label_2 
_geom_bond_distance 
_geom_bond_site_symmetry_2 
_ccdc_geom_bond_type 
N1            N2   1.325       .  A
N1            C5   1.335       .  A
N1           Cu9   2.049   1_455  S
N2            C3   1.357       .  A
N2           Cu8   2.118   1_554  S
C3            C4   1.393       .  A
C3            H6   1.082       .  S
C4            C5   1.372       .  A
C4          C299   1.471       .  S
C5            H7   1.082       .  S
Cu8          N11   2.119       .  S
Cu9          N19   2.048   1_554  S
Cu10         N12   2.054   1_655  S
Cu10         N18   2.053       .  S
N11          N12   1.325       .  A
N11          C15   1.359       .  A
N12          C13   1.334       .  A
C13          C14   1.374       .  A
C13          H16   1.083       .  S
C14          C15   1.394       .  A
C14         C181   1.474       .  S
C15          H17   1.082       .  S
N18          N19   1.313       .  A
N18          C22   1.343       .  A
N19          C20   1.340   1_556  A
C20          C21   1.387   1_554  A
C20          H23   1.082       .  S
C21          C22   1.389       .  A
C21         C962   1.477       .  S
C22          H24   1.082       .  S
N25          N26   1.325       .  A
N25          C29   1.334       .  A
N25         Cu33   2.057       .  S
N26          C27   1.357       .  A
N26         Cu32   2.106       .  S
C27          C28   1.392       .  A
C27          H30   1.082       .  S
C28          C29   1.375       .  A
C28         C333   1.473       .  S
C29          H31   1.082       .  S
Cu32         N35   2.106   1_554  S
Cu33         N43   2.057       .  S
Cu34         N36   2.054       .  S
Cu34         N42   2.054       .  S
N35          N36   1.323       .  A
N35          C39   1.355       .  A
N36          C37   1.336       .  A
C37          C38   1.375       .  A
C37          H40   1.082       .  S
C38          C39   1.391       .  A
C38         C149   1.470       .  S
C39          H41   1.082       .  S
N42          N43   1.315   1_556  A
N42          C46   1.339       .  A
N43          C44   1.346       .  A
C44          C45   1.390   1_554  A
C44          H47   1.080       .  S
C45          C46   1.386       .  A
C45         C946   1.483       .  S
C46          H48   1.082       .  S
N49          N50   1.324       .  A
N49          C53   1.335       .  A
N49         Cu57   2.049       .  S
N50          C51   1.355       .  A
N50         Cu56   2.107       .  S
C51          C52   1.391       .  A
C51          H54   1.082       .  S
C52          C53   1.373       .  A
C52         C247   1.468       .  S
C53          H55   1.081       .  S
Cu56         N59   2.107       .  S
Cu57         N67   2.049       .  S
Cu58         N60   2.052       .  S
Cu58         N66   2.051       .  S
N59          N60   1.324       .  A
N59          C63   1.358       .  A
N60          C61   1.332       .  A
C61          C62   1.375       .  A
C61          H64   1.082       .  S
C62          C63   1.393       .  A
C62         C391   1.474       .  S
C63          H65   1.082       .  S
N66          N67   1.315       .  A
N66          C70   1.344       .  A
N67          C68   1.340       .  A
C68          C69   1.384       .  A
C68          H71   1.082   1_655  S
C69          C70   1.387       .  A
C69         C930   1.476   1_655  S
C70          H72   1.080       .  S
N73          N74   1.323       .  A
N73          C77   1.333       .  A
N73         Cu81   2.045       .  S
N74          C75   1.355       .  A
N74         Cu80   2.108       .  S
C75          C76   1.392       .  A
C75          H78   1.082       .  S
C76          C77   1.374       .  A
C76         C399   1.468       .  S
C77          H79   1.083       .  S
Cu80         N83   2.108       .  S
Cu81         N91   2.046       .  S
Cu82         N84   2.067       .  S
Cu82         N90   2.067       .  S
N83          N84   1.324       .  A
N83          C87   1.358       .  A
N84          C85   1.335       .  A
C85          C86   1.379       .  A
C85          H88   1.082       .  S
C86          C87   1.393       .  A
C86         C239   1.480       .  S
C87          H89   1.082       .  S
N90          N91   1.315       .  A
N90          C94   1.345       .  A
N91          C92   1.338       .  A
C92          C93   1.385       .  A
C92          H95   1.082       .  S
C93          C94   1.392       .  A
C93         C914   1.479       .  S
C94          H96   1.082       .  S
N97          N98   1.325       .  A
N97         C101   1.337       .  A
N97        Cu105   2.062       .  S
N98          C99   1.356       .  A
N98        Cu104   2.111       .  S
C99         C100   1.391       .  A
C99         H102   1.082       .  S
C100        C101   1.376       .  A
C100        C235   1.473       .  S
C101        H103   1.082       .  S
Cu104       N107   2.111       .  S
Cu105       N115   2.060       .  S
Cu106       N108   2.061       .  S
Cu106       N114   2.060       .  S
N107        N108   1.324       .  A
N107        C111   1.355       .  A
N108        C109   1.338       .  A
C109        C110   1.376       .  A
C109        H112   1.082       .  S
C110        C111   1.391       .  A
C110        C381   1.473       .  S
C111        H113   1.082       .  S
N114        N115   1.316       .  A
N114        C118   1.342   1_545  A
N115        C116   1.345   1_545  A
C116        C117   1.387       .  A
C116        H119   1.080       .  S
C117        C118   1.385       .  A
C117        C917   1.480       .  S
C118        H120   1.082       .  S
N121        N122   1.324       .  A
N121        C125   1.330       .  A
N121       Cu129   2.051       .  S
N122        C123   1.361       .  A
N122       Cu128   2.115       .  S
C123        C124   1.396       .  A
C123        H126   1.082       .  S
C124        C125   1.375       .  A
C124        C385   1.478       .  S
C125        H127   1.083       .  S
Cu128       N131   2.116       .  S
Cu129       N139   2.049       .  S
Cu130       N132   2.049       .  S
Cu130       N138   2.048       .  S
N131        N132   1.325       .  A
N131        C135   1.357       .  A
N132        C133   1.333       .  A
C133        C134   1.372       .  A
C133        H136   1.081       .  S
C134        C135   1.393       .  A
C134        C229   1.472       .  S
C135        H137   1.082       .  S
N138        N139   1.313       .  A
N138        C142   1.340       .  A
N139        C140   1.343       .  A
C140        C141   1.390       .  A
C140        H143   1.082       .  S
C141        C142   1.387       .  A
C141        C933   1.480       .  S
C142        H144   1.082       .  S
C145        N146   1.354       .  A
C145        N150   1.352       .  A
C145        C898   1.480       .  S
N146        C147   1.359       .  A
C147        N148   1.367       .  A
C147        C882   1.488   1_565  S
N148        C149   1.360       .  A
C149        N150   1.356       .  A
O151       Cu159   2.009       .  S
O151        C161   1.278       .  A
O152       Cu159   2.010       .  S
O152        C162   1.279       .  A
O153       Cu159   2.005       .  S
O153        C163   1.277       .  A
O154       Cu159   2.009       .  S
O154        C164   1.277       .  A
O155       Cu160   2.019       .  S
O155        C164   1.280       .  A
O156       Cu160   2.022       .  S
O156        C163   1.280       .  A
O157       Cu160   2.006       .  S
O157        C162   1.276       .  A
O158       Cu160   2.004       .  S
O158        C161   1.277       .  A
Cu159      Cu160   2.364       .  S
C161        C850   1.484       .  S
C162        C885   1.494       .  S
C163        C866   1.495       .  S
C164        C834   1.493       .  S
O165       Cu173   2.002       .  S
O165        C175   1.276       .  A
O166       Cu173   1.998       .  S
O166        C176   1.277       .  A
O167       Cu173   2.003       .  S
O167        C177   1.276       .  A
O168       Cu173   2.008       .  S
O168        C178   1.278       .  A
O169       Cu174   2.019       .  S
O169        C178   1.279       .  A
O170       Cu174   2.016       .  S
O170        C177   1.281       .  A
O171       Cu174   2.009       .  S
O171        C176   1.277       .  A
O172       Cu174   2.011       .  S
O172        C175   1.278       .  A
Cu173      Cu174   2.367       .  S
C175        C802   1.479       .  S
C176        C901   1.481       .  S
C177        C818   1.494       .  S
C178        C786   1.491       .  S
C179        N180   1.368       .  A
C179        N184   1.365       .  A
C179        C773   1.489       .  S
N180        C181   1.362       .  A
C181        N182   1.354       .  A
N182        C183   1.352       .  A
C183        N184   1.357       .  A
C183        C789   1.488       .  S
O185       Cu193   2.012       .  S
O185        C195   1.278       .  A
O186       Cu193   2.015       .  S
O186        C196   1.278       .  A
O187       Cu193   2.006       .  S
O187        C197   1.276       .  A
O188       Cu193   2.009       .  S
O188        C198   1.280       .  A
O189       Cu194   2.008       .  S
O189        C198   1.276       .  A
O190       Cu194   2.002       .  S
O190        C197   1.278       .  A
O191       Cu194   2.022       .  S
O191        C196   1.279       .  A
O192       Cu194   2.027       .  S
O192        C195   1.280       .  A
Cu193      Cu194   2.364       .  S
C195        C738   1.498       .  S
C196        C770   1.493       .  S
C197        C754   1.483       .  S
C198        C722   1.494       .  S
C199        N200   1.347       .  A
C199        N204   1.351       .  A
C199        C837   1.480       .  S
N200        C201   1.357       .  A
C201        N202   1.368       .  A
C201        C276   1.484       .  S
N202        C203   1.374       .  A
C203        N204   1.364       .  A
C203        C709   1.505       .  S
O205       Cu213   2.014       .  S
O205        C215   1.279       .  A
O206       Cu213   2.020       .  S
O206        C216   1.280       .  A
O207       Cu213   1.991       .  S
O207        C217   1.274       .  A
O208       Cu213   1.994       .  S
O208        C218   1.276       .  A
O209       Cu214   2.020       .  S
O209        C218   1.279       .  A
O210       Cu214   2.019       .  S
O210        C217   1.280       .  A
O211       Cu214   2.016       .  S
O211        C216   1.278       .  A
O212       Cu214   2.019       .  S
O212        C215   1.279       .  A
Cu213      Cu214   2.362       .  S
C215        C706   1.498       .  S
C216        C690   1.499       .  S
C217        C658   1.490       .  S
C218        C674   1.487       .  S
C219        N220   1.364       .  A
C219        N224   1.364       .  A
C219        C661   1.500   1_565  S
N220        C221   1.356       .  A
C221        N222   1.351       .  A
C221        C725   1.488       .  S
N222        C223   1.355       .  A
C223        N224   1.358       .  A
C223        C252   1.466       .  S
C225        N226   1.355       .  A
C225        N230   1.352       .  A
C225        C757   1.480       .  S
N226        C227   1.360       .  A
C227        N228   1.365       .  A
C227        C677   1.480       .  S
N228        C229   1.360       .  A
C229        N230   1.357       .  A
C231        N232   1.365       .  A
C231        N236   1.366       .  A
C231        C693   1.496       .  S
N232        C233   1.358       .  A
C233        N234   1.354       .  A
C233        C869   1.494       .  S
N234        C235   1.355       .  A
C235        N236   1.360       .  A
C237        N238   1.347       .  A
C237        N242   1.353       .  A
C237        C821   1.482       .  S
N238        C239   1.355       .  A
C239        N240   1.367       .  A
N240        C241   1.372       .  A
C241        N242   1.364       .  A
C241        C741   1.508       .  S
C243        N244   1.363       .  A
C243        N248   1.365       .  A
C243        C853   1.497       .  S
N244        C245   1.355       .  A
C245        N246   1.351       .  A
C245        C805   1.477       .  S
N246        C247   1.355       .  A
C247        N248   1.359       .  A
N249        N250   1.322       .  A
N249        C253   1.333       .  A
N249       Cu257   2.041       .  S
N250        C251   1.355       .  A
N250       Cu256   2.101   1_556  S
C251        C252   1.392       .  A
C251        H254   1.082       .  S
C252        C253   1.373       .  A
C253        H255   1.081       .  S
Cu256       N259   2.103       .  S
Cu257       N267   2.044       .  S
Cu258       N260   2.066       .  S
Cu258       N266   2.064       .  S
N259        N260   1.326       .  A
N259        C263   1.355       .  A
N260        C261   1.336       .  A
C261        C262   1.376       .  A
C261        H264   1.082       .  S
C262        C263   1.389       .  A
C262        C353   1.472       .  S
C263        H265   1.082       .  S
N266        N267   1.315   1_554  A
N266        C270   1.347       .  A
N267        C268   1.337       .  A
C268        C269   1.384       .  A
C268        H271   1.082       .  S
C269        C270   1.392   1_556  A
C269        C949   1.480       .  S
C270        H272   1.082       .  S
N273        N274   1.323       .  A
N273        C277   1.333       .  A
N273       Cu281   2.053   1_455  S
N274        C275   1.362       .  A
N274       Cu280   2.124   1_556  S
C275        C276   1.398       .  A
C275        H278   1.082       .  S
C276        C277   1.377       .  A
C277        H279   1.082       .  S
Cu280       N283   2.125       .  S
Cu281       N291   2.054       .  S
Cu282       N284   2.053   1_655  S
Cu282       N290   2.051       .  S
N283        N284   1.325       .  A
N283        C287   1.357       .  A
N284        C285   1.337       .  A
C285        C286   1.374       .  A
C285        H288   1.082       .  S
C286        C287   1.394       .  A
C286        C361   1.475       .  S
C287        H289   1.082       .  S
N290        N291   1.316   1_554  A
N290        C294   1.340       .  A
N291        C292   1.344       .  A
C292        C293   1.386       .  A
C292        H295   1.081       .  S
C293        C294   1.384   1_556  A
C293        C965   1.474       .  S
C294        H296   1.082       .  S
C297        N298   1.367       .  A
C297        N302   1.361       .  A
C297        C626   1.488       .  S
N298        C299   1.359       .  A
C299        N300   1.356       .  A
N300        C301   1.353       .  A
C301        N302   1.355       .  A
C301        C645   1.482   1_455  S
O303       Cu311   2.013       .  S
O303        C313   1.279       .  A
O304       Cu311   2.010       .  S
O304        C314   1.278       .  A
O305       Cu311   1.995       .  S
O305        C315   1.276       .  A
O306       Cu311   2.008       .  S
O306        C316   1.278       .  A
O307       Cu312   2.013       .  S
O307        C316   1.278       .  A
O308       Cu312   2.018       .  S
O308        C315   1.278       .  A
O309       Cu312   1.997       .  S
O309        C314   1.275       .  A
O310       Cu312   2.000       .  S
O310        C313   1.276       .  A
Cu311      Cu312   2.369       .  S
C313        C594   1.483       .  S
C314        C629   1.474       .  S
C315        C610   1.474       .  S
C316        C578   1.498       .  S
O317       Cu325   2.002       .  S
O317        C327   1.277       .  A
O318       Cu325   1.994       .  S
O318        C328   1.277       .  A
O319       Cu325   2.013       .  S
O319        C329   1.279       .  A
O320       Cu325   2.013       .  S
O320        C330   1.280       .  A
O321       Cu326   2.004       .  S
O321        C330   1.276       .  A
O322       Cu326   2.003       .  S
O322        C329   1.276       .  A
O323       Cu326   2.017       .  S
O323        C328   1.278       .  A
O324       Cu326   2.013       .  S
O324        C327   1.278       .  A
Cu325      Cu326   2.368       .  S
C327        C530   1.488       .  S
C328        C562   1.479       .  S
C329        C642   1.491       .  S
C330        C549   1.480       .  S
C331        N332   1.350       .  A
C331        N336   1.354       .  A
C331        C533   1.480       .  S
N332        C333   1.355       .  A
C333        N334   1.362       .  A
N334        C335   1.368       .  A
C335        N336   1.362       .  A
C335        C514   1.488       .  S
O337       Cu345   2.025       .  S
O337        C347   1.281       .  A
O338       Cu345   2.026       .  S
O338        C348   1.280       .  A
O339       Cu345   2.013       .  S
O339        C349   1.277       .  A
O340       Cu345   2.008       .  S
O340        C350   1.277       .  A
O341       Cu346   2.009       .  S
O341        C350   1.278       .  A
O342       Cu346   2.009       .  S
O342        C349   1.279       .  A
O343       Cu346   2.010       .  S
O343        C348   1.277       .  A
O344       Cu346   2.016       .  S
O344        C347   1.277       .  A
Cu345      Cu346   2.361       .  S
C347        C501   1.501       .  S
C348        C466   1.501       .  S
C349        C482   1.489       .  S
C350        C517   1.495       .  S
C351        N352   1.367       .  A
C351        N356   1.367       .  A
C351        C450   1.505       .  S
N352        C353   1.360       .  A
C353        N354   1.352       .  A
N354        C355   1.351       .  A
C355        N356   1.358       .  A
C355        C581   1.492       .  S
C357        N358   1.357       .  A
C357        N362   1.357       .  A
C357        C469   1.498       .  S
N358        C359   1.365       .  A
C359        N360   1.365       .  A
C359        C434   1.498       .  S
N360        C361   1.359       .  A
C361        N362   1.358       .  A
O363       Cu371   2.015       .  S
O363        C373   1.278       .  A
O364       Cu371   2.014       .  S
O364        C374   1.278       .  A
O365       Cu371   2.016       .  S
O365        C375   1.279       .  A
O366       Cu371   2.016       .  S
O366        C376   1.280       .  A
O367       Cu372   2.011       .  S
O367        C376   1.276       .  A
O368       Cu372   2.014       .  S
O368        C375   1.278       .  A
O369       Cu372   2.021       .  S
O369        C374   1.280       .  A
O370       Cu372   2.018       .  S
O370        C373   1.279       .  A
Cu371      Cu372   2.367       .  S
C373        C437   1.487       .  S
C374        C405   1.492       .  S
C375        C453   1.490       .  S
C376        C418   1.489       .  S
C377        N378   1.367       .  A
C377        N382   1.366       .  A
C377        C402   1.505       .  S
N378        C379   1.361       .  A
C379        N380   1.353       .  A
C379        C498   1.497       .  S
N380        C381   1.355       .  A
C381        N382   1.360       .  A
C383        N384   1.347       .  A
C383        N388   1.352       .  A
C383        C613   1.482       .  S
N384        C385   1.353       .  A
C385        N386   1.364       .  A
N386        C387   1.371       .  A
C387        N388   1.363       .  A
C387        C421   1.478       .  S
C389        N390   1.369       .  A
C389        N394   1.362       .  A
C389        C485   1.480       .  S
N390        C391   1.363       .  A
C391        N392   1.354       .  A
N392        C393   1.347       .  A
C393        N394   1.353       .  A
C393        C565   1.474       .  S
C395        N396   1.357       .  A
C395        N400   1.348       .  A
C395        C546   1.486       .  S
N396        C397   1.366       .  A
C397        N398   1.366       .  A
C397        C597   1.494       .  S
N398        C399   1.358       .  A
C399        N400   1.353       .  A
C401        C402   1.410       .  A
C401        C406   1.405       .  A
C401        H408   1.083       .  S
C402        C403   1.423       .  A
C403        C404   1.410       .  A
C403        C410   1.508       .  S
C404        C405   1.405       .  A
C404        H409   1.084       .  S
C405        C406   1.415       .  A
C406        C407   1.509       .  S
C407        H411   1.111       .  S
C407        H412   1.109       .  S
C407        H413   1.111       .  S
C410        H414   1.110       .  S
C410        H415   1.110       .  S
C410        H416   1.111       .  S
C417        C418   1.404       .  A
C417        C422   1.401       .  A
C417        H424   1.084       .  S
C418        C419   1.420       .  A
C419        C420   1.409       .  A
C419        C426   1.506       .  S
C420        C421   1.402       .  A
C420        H425   1.084       .  S
C421        C422   1.414       .  A
C422        C423   1.509       .  S
C423        H427   1.111       .  S
C423        H428   1.110       .  S
C423        H429   1.109       .  S
C426        H430   1.109       .  S
C426        H431   1.107       .  S
C426        H432   1.111       .  S
C433        C434   1.409       .  A
C433        C438   1.403       .  A
C433        H440   1.083       .  S
C434        C435   1.421       .  A
C435        C436   1.409       .  A
C435        C442   1.508       .  S
C436        C437   1.405       .  A
C436        H441   1.084       .  S
C437        C438   1.413       .  A
C438        C439   1.507       .  S
C439        H443   1.111       .  S
C439        H444   1.108       .  S
C439        H445   1.109       .  S
C442        H446   1.110       .  S
C442        H447   1.110       .  S
C442        H448   1.111       .  S
C449        C450   1.411       .  A
C449        C454   1.404   1_565  A
C449        H456   1.082       .  S
C450        C451   1.424   1_565  A
C451        C452   1.410       .  A
C451        C458   1.508       .  S
C452        C453   1.405       .  A
C452        H457   1.084       .  S
C453        C454   1.414       .  A
C454        C455   1.509       .  S
C455        H459   1.111   1_545  S
C455        H460   1.109       .  S
C455        H461   1.111       .  S
C458        H462   1.110       .  S
C458        H463   1.110       .  S
C458        H464   1.111       .  S
C465        C466   1.410       .  A
C465        C470   1.411       .  A
C465        H472   1.084       .  S
C466        C467   1.421       .  A
C467        C468   1.405       .  A
C467        C474   1.509       .  S
C468        C469   1.405   1_655  A
C468        H473   1.084       .  S
C469        C470   1.419   1_455  A
C470        C471   1.508   1_655  S
C471        H475   1.111       .  S
C471        H476   1.109       .  S
C471        H477   1.110       .  S
C474        H478   1.110       .  S
C474        H479   1.110       .  S
C474        H480   1.111       .  S
C481        C482   1.405       .  A
C481        C486   1.401       .  A
C481        H488   1.084       .  S
C482        C483   1.420       .  A
C483        C484   1.408       .  A
C483        C490   1.507       .  S
C484        C485   1.403       .  A
C484        H489   1.084       .  S
C485        C486   1.414       .  A
C486        C487   1.509       .  S
C487        H491   1.111       .  S
C487        H492   1.109       .  S
C487        H493   1.110       .  S
C490        H494   1.111       .  S
C490        H495   1.110       .  S
C490        H496   1.111       .  S
C497        C498   1.405       .  A
C497        C502   1.411       .  A
C497        H504   1.084       .  S
C498        C499   1.421       .  A
C499        C500   1.405       .  A
C499        C506   1.509       .  S
C500        C501   1.405       .  A
C500        H505   1.084       .  S
C501        C502   1.423       .  A
C502        C503   1.508       .  S
C503        H507   1.111       .  S
C503        H508   1.110       .  S
C503        H509   1.110       .  S
C506        H510   1.110       .  S
C506        H511   1.109       .  S
C506        H512   1.111       .  S
C513        C514   1.404       .  A
C513        C518   1.403   1_565  A
C513        H520   1.084       .  S
C514        C515   1.415   1_565  A
C515        C516   1.407       .  A
C515        C522   1.507       .  S
C516        C517   1.410       .  A
C516        H521   1.083       .  S
C517        C518   1.421       .  A
C518        C519   1.510       .  S
C519        H523   1.111   1_545  S
C519        H524   1.110       .  S
C519        H525   1.110       .  S
C522        H526   1.110       .  S
C522        H527   1.110       .  S
C522        H528   1.111       .  S
C529        C530   1.409       .  A
C529        C534   1.404       .  A
C529        H536   1.084       .  S
C530        C531   1.418       .  A
C531        C532   1.403       .  A
C531        C538   1.508       .  S
C532        C533   1.404       .  A
C532        H537   1.084       .  S
C533        C534   1.412       .  A
C534        C535   1.507       .  S
C535        H539   1.111       .  S
C535        H540   1.109       .  S
C535        H541   1.110       .  S
C538        H542   1.110       .  S
C538        H543   1.109       .  S
C538        H544   1.111       .  S
C545        C546   1.406       .  A
C545        C550   1.408       .  A
C545        H552   1.084       .  S
C546        C547   1.420       .  A
C547        C548   1.400       .  A
C547        C554   1.510       .  S
C548        C549   1.400       .  A
C548        H553   1.084       .  S
C549        C550   1.416       .  A
C550        C551   1.507       .  S
C551        H555   1.111       .  S
C551        H556   1.109       .  S
C551        H557   1.110       .  S
C554        H558   1.110       .  S
C554        H559   1.109       .  S
C554        H560   1.111       .  S
C561        C562   1.403       .  A
C561        C566   1.399       .  A
C561        H568   1.084       .  S
C562        C563   1.416       .  A
C563        C564   1.407       .  A
C563        C570   1.507       .  S
C564        C565   1.403       .  A
C564        H569   1.084       .  S
C565        C566   1.413       .  A
C566        C567   1.509       .  S
C567        H571   1.111       .  S
C567        H572   1.110       .  S
C567        H573   1.108       .  S
C570        H574   1.110       .  S
C570        H575   1.111       .  S
C570        H576   1.111       .  S
C577        C578   1.411       .  A
C577        C582   1.408       .  A
C577        H584   1.083       .  S
C578        C579   1.420       .  A
C579        C580   1.402       .  A
C579        C586   1.510       .  S
C580        C581   1.406       .  A
C580        H585   1.084       .  S
C581        C582   1.415       .  A
C582        C583   1.507       .  S
C583        H587   1.111       .  S
C583        H588   1.110       .  S
C583        H589   1.109       .  S
C586        H590   1.110       .  S
C586        H591   1.110       .  S
C586        H592   1.111       .  S
C593        C594   1.404       .  A
C593        C598   1.406       .  A
C593        H600   1.084       .  S
C594        C595   1.415       .  A
C595        C596   1.401       .  A
C595        C602   1.510       .  S
C596        C597   1.408       .  A
C596        H601   1.083       .  S
C597        C598   1.420       .  A
C598        C599   1.508       .  S
C599        H603   1.111       .  S
C599        H604   1.109       .  S
C599        H605   1.110       .  S
C602        H606   1.111       .  S
C602        H607   1.109       .  S
C602        H608   1.111       .  S
C609        C610   1.405       .  A
C609        C614   1.410       .  A
C609        H616   1.084       .  S
C610        C611   1.411       .  A
C611        C612   1.396       .  A
C611        C618   1.510       .  S
C612        C613   1.404       .  A
C612        H617   1.084       .  S
C613        C614   1.416       .  A
C614        C615   1.506       .  S
C615        H619   1.111       .  S
C615        H620   1.110       .  S
C615        H621   1.110       .  S
C618        H622   1.109       .  S
C618        H623   1.110       .  S
C618        H624   1.111       .  S
C625        C626   1.406       .  A
C625        C630   1.403       .  A
C625        H632   1.084       .  S
C626        C627   1.422       .  A
C627        C628   1.403       .  A
C627        C634   1.509       .  S
C628        C629   1.399       .  A
C628        H633   1.085       .  S
C629        C630   1.413       .  A
C630        C631   1.508       .  S
C631        H635   1.111       .  S
C631        H636   1.110       .  S
C631        H637   1.111       .  S
C634        H638   1.110       .  S
C634        H639   1.107       .  S
C634        H640   1.111       .  S
C641        C642   1.408       .  A
C641        C646   1.406       .  A
C641        H648   1.084       .  S
C642        C643   1.421       .  A
C643        C644   1.402       .  A
C643        C650   1.509       .  S
C644        C645   1.402       .  A
C644        H649   1.084       .  S
C645        C646   1.414       .  A
C646        C647   1.507   1_655  S
C647        H651   1.111       .  S
C647        H652   1.110       .  S
C647        H653   1.108       .  S
C650        H654   1.109       .  S
C650        H655   1.111       .  S
C650        H656   1.111       .  S
C657        C658   1.405       .  A
C657        C662   1.407       .  A
C657        H664   1.084       .  S
C658        C659   1.418       .  A
C659        C660   1.401       .  A
C659        C666   1.510       .  S
C660        C661   1.409       .  A
C660        H665   1.083       .  S
C661        C662   1.423       .  A
C662        C663   1.508       .  S
C663        H667   1.111       .  S
C663        H668   1.110       .  S
C663        H669   1.110       .  S
C666        H670   1.111       .  S
C666        H671   1.110       .  S
C666        H672   1.111       .  S
C673        C674   1.407       .  A
C673        C678   1.403       .  A
C673        H680   1.084       .  S
C674        C675   1.417       .  A
C675        C676   1.404       .  A
C675        C682   1.507       .  S
C676        C677   1.404       .  A
C676        H681   1.084       .  S
C677        C678   1.413       .  A
C678        C679   1.508       .  S
C679        H683   1.111       .  S
C679        H684   1.109       .  S
C679        H685   1.110       .  S
C682        H686   1.109       .  S
C682        H687   1.110       .  S
C682        H688   1.111       .  S
C689        C690   1.408       .  A
C689        C694   1.409       .  A
C689        H696   1.084       .  S
C690        C691   1.421       .  A
C691        C692   1.405       .  A
C691        C698   1.509       .  S
C692        C693   1.406       .  A
C692        H697   1.084       .  S
C693        C694   1.419       .  A
C694        C695   1.508       .  S
C695        H699   1.111       .  S
C695        H700   1.110       .  S
C695        H701   1.110       .  S
C698        H702   1.110       .  S
C698        H703   1.109       .  S
C698        H704   1.111       .  S
C705        C706   1.411       .  A
C705        C710   1.413       .  A
C705        H712   1.084       .  S
C706        C707   1.417       .  A
C707        C708   1.402       .  A
C707        C714   1.510       .  S
C708        C709   1.411       .  A
C708        H713   1.083       .  S
C709        C710   1.419       .  A
C710        C711   1.507       .  S
C711        H715   1.111       .  S
C711        H716   1.110       .  S
C711        H717   1.110       .  S
C714        H718   1.110       .  S
C714        H719   1.111       .  S
C714        H720   1.111       .  S
C721        C722   1.405       .  A
C721        C726   1.402       .  A
C721        H728   1.084       .  S
C722        C723   1.422       .  A
C723        C724   1.407       .  A
C723        C730   1.508       .  S
C724        C725   1.403       .  A
C724        H729   1.084       .  S
C725        C726   1.418       .  A
C726        C727   1.508       .  S
C727        H731   1.111       .  S
C727        H732   1.109       .  S
C727        H733   1.110       .  S
C730        H734   1.109       .  S
C730        H735   1.110       .  S
C730        H736   1.111       .  S
C737        C738   1.409       .  A
C737        C742   1.414       .  A
C737        H744   1.084       .  S
C738        C739   1.416       .  A
C739        C740   1.403       .  A
C739        C746   1.510       .  S
C740        C741   1.412       .  A
C740        H745   1.083       .  S
C741        C742   1.421       .  A
C742        C743   1.507       .  S
C743        H747   1.111       .  S
C743        H748   1.110       .  S
C743        H749   1.110       .  S
C746        H750   1.109       .  S
C746        H751   1.111       .  S
C746        H752   1.111       .  S
C753        C754   1.403       .  A
C753        C758   1.401       .  A
C753        H760   1.084       .  S
C754        C755   1.418       .  A
C755        C756   1.405       .  A
C755        C762   1.508       .  S
C756        C757   1.403       .  A
C756        H761   1.084       .  S
C757        C758   1.415       .  A
C758        C759   1.508       .  S
C759        H763   1.111       .  S
C759        H764   1.110       .  S
C759        H765   1.107       .  S
C762        H766   1.110       .  S
C762        H767   1.111       .  S
C762        H768   1.111       .  S
C769        C770   1.407       .  A
C769        C774   1.408       .  A
C769        H776   1.084       .  S
C770        C771   1.418       .  A
C771        C772   1.406       .  A
C771        C778   1.507       .  S
C772        C773   1.404       .  A
C772        H777   1.084       .  S
C773        C774   1.416       .  A
C774        C775   1.507       .  S
C775        H779   1.111       .  S
C775        H780   1.110       .  S
C775        H781   1.109       .  S
C778        H782   1.109       .  S
C778        H783   1.110       .  S
C778        H784   1.111       .  S
C785        C786   1.409       .  A
C785        C790   1.410   1_655  A
C785        H792   1.084       .  S
C786        C787   1.418       .  A
C787        C788   1.402       .  A
C787        C794   1.509       .  S
C788        C789   1.405   1_655  A
C788        H793   1.084       .  S
C789        C790   1.414       .  A
C790        C791   1.506       .  S
C791        H795   1.111       .  S
C791        H796   1.110       .  S
C791        H797   1.110       .  S
C794        H798   1.111       .  S
C794        H799   1.109       .  S
C794        H800   1.111       .  S
C801        C802   1.402       .  A
C801        C806   1.403       .  A
C801        H808   1.084       .  S
C802        C803   1.417       .  A
C803        C804   1.404       .  A
C803        C810   1.507       .  S
C804        C805   1.401       .  A
C804        H809   1.084       .  S
C805        C806   1.415       .  A
C806        C807   1.507       .  S
C807        H811   1.111       .  S
C807        H812   1.108       .  S
C807        H813   1.110       .  S
C810        H814   1.110       .  S
C810        H815   1.109       .  S
C810        H816   1.111       .  S
C817        C818   1.407       .  A
C817        C822   1.402       .  A
C817        H824   1.084       .  S
C818        C819   1.423       .  A
C819        C820   1.407       .  A
C819        C826   1.508       .  S
C820        C821   1.401       .  A
C820        H825   1.084       .  S
C821        C822   1.415       .  A
C822        C823   1.509       .  S
C823        H827   1.111       .  S
C823        H828   1.110       .  S
C823        H829   1.108       .  S
C826        H830   1.110       .  S
C826        H831   1.109       .  S
C826        H832   1.111       .  S
C833        C834   1.407       .  A
C833        C838   1.405       .  A
C833        H840   1.084       .  S
C834        C835   1.422       .  A
C835        C836   1.406   1_655  A
C835        C842   1.508       .  S
C836        C837   1.401       .  A
C836        H841   1.084       .  S
C837        C838   1.412   1_455  A
C838        C839   1.508       .  S
C839        H843   1.111       .  S
C839        H844   1.110   1_655  S
C839        H845   1.109       .  S
C842        H846   1.110       .  S
C842        H847   1.111       .  S
C842        H848   1.111       .  S
C849        C850   1.404       .  A
C849        C854   1.406       .  A
C849        H856   1.084       .  S
C850        C851   1.414       .  A
C851        C852   1.402       .  A
C851        C858   1.509       .  S
C852        C853   1.410       .  A
C852        H857   1.083       .  S
C853        C854   1.421       .  A
C854        C855   1.508       .  S
C855        H859   1.111       .  S
C855        H860   1.109       .  S
C855        H861   1.110       .  S
C858        H862   1.111       .  S
C858        H863   1.109       .  S
C858        H864   1.111       .  S
C865        C866   1.409       .  A
C865        C870   1.409       .  A
C865        H872   1.084       .  S
C866        C867   1.419       .  A
C867        C868   1.403       .  A
C867        C874   1.510       .  S
C868        C869   1.406       .  A
C868        H873   1.084       .  S
C869        C870   1.417       .  A
C870        C871   1.507       .  S
C871        H875   1.111       .  S
C871        H876   1.110       .  S
C871        H877   1.110       .  S
C874        H878   1.111       .  S
C874        H879   1.109       .  S
C874        H880   1.111       .  S
C881        C882   1.404       .  A
C881        C886   1.405       .  A
C881        H888   1.084       .  S
C882        C883   1.419       .  A
C883        C884   1.403       .  A
C883        C890   1.510       .  S
C884        C885   1.406       .  A
C884        H889   1.084       .  S
C885        C886   1.421       .  A
C886        C887   1.508       .  S
C887        H891   1.111       .  S
C887        H892   1.110       .  S
C887        H893   1.110       .  S
C890        H894   1.109   1_545  S
C890        H895   1.110   1_545  S
C890        H896   1.111       .  S
C897        C898   1.404       .  A
C897        C902   1.405       .  A
C897        H904   1.084       .  S
C898        C899   1.416       .  A
C899        C900   1.400       .  A
C899        C906   1.508       .  S
C900        C901   1.403       .  A
C900        H905   1.084       .  S
C901        C902   1.417       .  A
C902        C903   1.507       .  S
C903        H907   1.111       .  S
C903        H908   1.110       .  S
C903        H909   1.111       .  S
C906        H910   1.110       .  S
C906        H911   1.108       .  S
C906        H912   1.111       .  S
C913        C914   1.404       .  A
C913        C918   1.400       .  A
C913        H920   1.083       .  S
C914        C915   1.411       .  A
C915        C916   1.404       .  A
C915        C922   1.507       .  S
C916        C917   1.405       .  A
C916        H921   1.084       .  S
C917        C918   1.416       .  A
C918        C919   1.508       .  S
C919        H923   1.111       .  S
C919        H924   1.110       .  S
C919        H925   1.108       .  S
C922        H926   1.108       .  S
C922        H927   1.110       .  S
C922        H928   1.111       .  S
C929        C930   1.402       .  A
C929        C934   1.400       .  A
C929        H936   1.085       .  S
C930        C931   1.416       .  A
C931        C932   1.401       .  A
C931        C938   1.508       .  S
C932        C933   1.405       .  A
C932        H937   1.083       .  S
C933        C934   1.413       .  A
C934        C935   1.506       .  S
C935        H939   1.110       .  S
C935        H940   1.109       .  S
C935        H941   1.110       .  S
C938        H942   1.108       .  S
C938        H943   1.110       .  S
C938        H944   1.111       .  S
C945        C946   1.404       .  A
C945        C950   1.398       .  A
C945        H952   1.085       .  S
C946        C947   1.418   1_556  A
C947        C948   1.405       .  A
C947        C954   1.506       .  S
C948        C949   1.403   1_554  A
C948        H953   1.083       .  S
C949        C950   1.412       .  A
C950        C951   1.507       .  S
C951        H955   1.110       .  S
C951        H956   1.111       .  S
C951        H957   1.109       .  S
C954        H958   1.110       .  S
C954        H959   1.109       .  S
C954        H960   1.111       .  S
C961        C962   1.403       .  A
C961        C966   1.400       .  A
C961        H968   1.083       .  S
C962        C963   1.413       .  A
C963        C964   1.403       .  A
C963        C970   1.507   1_556  S
C964        C965   1.402       .  A
C964        H969   1.084   1_556  S
C965        C966   1.416       .  A
C966        C967   1.509       .  S
C967        H971   1.111       .  S
C967        H972   1.109       .  S
C967        H973   1.110       .  S
C970        H974   1.110   1_554  S
C970        H975   1.107       .  S
C970        H976   1.111       .  S
