geometry optimzed in LAMMPS
_audit_creation_date              2020-11-30 
_audit_creation_method            'lammps2cif' 
_symmetry_space_group_name_H-M    'P1' 
_symmetry_Int_Tables_number       1 
_symmetry_cell_setting            triclinic 
loop_ 
_symmetry_equiv_pos_as_xyz 
  x,y,z 
_cell_length_a                    47.589310945135175 
_cell_length_b                    47.403482142431294 
_cell_length_c                    29.234813004260076 
_cell_angle_alpha                 90.33366169386133 
_cell_angle_beta                  89.81613777316853 
_cell_angle_gamma                 119.03678647402631 
loop_ 
_atom_site_label 
_atom_site_type_symbol 
_atom_site_fract_x 
_atom_site_fract_y 
_atom_site_fract_z 
_atom_site_charge 
C1          C  0.40310909  0.50235013  0.00013556    -0.01550
C2          C  0.15395277  0.00254762  0.00010457    -0.01550
C3          C  0.15590832  0.13089317  0.00432755    -0.01550
C4          C  0.02693078  0.12776787  0.00424251    -0.01550
C5          C  0.02552164  0.37815328  0.99846669    -0.01550
C6          C  0.39571300  0.37266037  0.00661102    -0.01550
O7          O  0.04315901  0.36728214  0.32256106    -0.56880
C8          C  0.02312118  0.35821088  0.45545191     0.75750
O9          O  0.45601500  0.30174018  0.33845925    -0.58030
C10         C  0.02418323  0.35782668  0.28848963     0.75720
C11         C  0.01690891  0.26295569  0.37508140     0.78120
Cd12       Cd  0.00908974  0.31975271  0.37196063     1.37470
O13         O  0.03895327  0.37032589  0.41896715    -0.56870
O14         O  0.04213618  0.29027119  0.37395232    -0.55680
C15         C  0.44367853  0.30301151  0.37624898     0.78080
O16         O  0.49058538  0.26309495  0.37376000    -0.58050
O17         O  0.00349940  0.32838502  0.45351272    -0.56510
O18         O  0.50032507  0.32980546  0.29197725    -0.56500
O19         O  0.46096741  0.30983465  0.41151084    -0.55670
O20         O  0.03576820  0.14532093  0.33357527    -0.56880
C21         C  0.02397626  0.14448456  0.46115317     0.75750
O22         O  0.48947856  0.20654582  0.38283628    -0.58030
C23         C  0.02412424  0.14750692  0.29555158     0.75720
C24         C  0.44159481  0.12013305  0.37962371     0.78120
Cd25       Cd  0.00695238  0.16723591  0.38023069     1.37460
O26         O  0.01611994  0.12937236  0.42352274    -0.56870
O27         O  0.45845584  0.13059865  0.34427002    -0.55680
C28         C  0.01628781  0.23174381  0.37788853     0.78080
O29         O  0.45362591  0.13471828  0.41677757    -0.58050
O30         O  0.02788666  0.17294282  0.46040825    -0.56510
O31         O  0.00824624  0.16241825  0.29693883    -0.56500
O32         O  0.04095851  0.22803181  0.37516117    -0.55670
O33         O  0.36876401  0.35903792  0.43112301    -0.56880
C34         C  0.38226482  0.35113565  0.30156619     0.75750
O35         O  0.39566563  0.29693786  0.34368869    -0.58030
C36         C  0.37914914  0.35070020  0.46559861     0.75720
C37         C  0.29656743  0.25725852  0.38475728     0.78120
Cd38       Cd  0.36010497  0.31243825  0.38339048     1.37470
O39         O  0.38387433  0.36388313  0.34039700    -0.56870
O40         O  0.29946618  0.28491570  0.37777455    -0.55680
C41         C  0.41226427  0.30046627  0.37901096     0.78080
O42         O  0.32208181  0.25615003  0.39225617    -0.58050
O43         O  0.36851304  0.32066465  0.30078041    -0.56510
O44         O  0.37699674  0.32305722  0.46324742    -0.56500
O45         O  0.40205404  0.30506298  0.41665835    -0.55670
O46         O  0.40564430  0.51277840  0.32851212    -0.56880
C47         C  0.38635046  0.00580911  0.45732518     0.75750
O48         O  0.39758539  0.07514109  0.41338150    -0.58030
C49         C  0.39188792  0.00834553  0.29008768     0.75720
C50         C  0.30164352  0.01413736  0.37371712     0.78120
Cd51       Cd  0.36660523  0.02341841  0.37364809     1.37470
O52         O  0.37831905  0.48721561  0.42257361    -0.56870
O53         O  0.30524369  0.48936611  0.37676342    -0.55680
C54         C  0.41198960  0.08974958  0.37758533     0.78080
O55         O  0.32696863  0.04086988  0.36972053    -0.58050
O56         O  0.38154042  0.02966141  0.45401201    -0.56510
O57         O  0.36528545  0.00852477  0.29089228    -0.56500
O58         O  0.40227099  0.07490758  0.33999117    -0.55670
O59         O  0.16696472  0.48658582  0.32696980    -0.56880
C60         C  0.17412226  0.00672252  0.45714507     0.75750
O61         O  0.27052718  0.04033910  0.37753339    -0.58030
C62         C  0.17581314  0.00554511  0.29298669     0.75720
C63         C  0.22904011  0.08662641  0.37657710     0.78120
Cd64       Cd  0.21393637  0.02196234  0.37496116     1.37470
O65         O  0.16237258  0.50309969  0.41737443    -0.56870
O66         O  0.21840745  0.06829429  0.41059864    -0.55680
C67         C  0.27050222  0.01377902  0.37506338     0.78080
O68         O  0.23753802  0.07659070  0.34195313    -0.58050
O69         O  0.20375515  0.01473398  0.45885168    -0.56510
O70         O  0.20351568  0.02982503  0.29578633    -0.56500
O71         O  0.24312373  0.48856283  0.37352469    -0.55670
O72         O  0.16460674  0.12815087  0.42324140    -0.56880
C73         C  0.17509533  0.14661757  0.29121998     0.75750
O74         O  0.26581576  0.20077466  0.39012107    -0.58030
C75         C  0.17391117  0.14453263  0.45977096     0.75720
C76         C  0.22677895  0.11576235  0.37633539     0.78120
Cd77       Cd  0.21025801  0.16480355  0.37542684     1.37470
O78         O  0.16379125  0.15386611  0.32590227    -0.56870
O79         O  0.20727952  0.11776286  0.40341035    -0.55680
C80         C  0.26592998  0.22709197  0.38302696     0.78080
O81         O  0.24142241  0.13846173  0.34824329    -0.58050
O82         O  0.20379422  0.15235072  0.29463444    -0.56510
O83         O  0.19892693  0.17192712  0.45646884    -0.56500
O84         O  0.23916904  0.22547471  0.37326661    -0.55670
C85         C  0.40705961  0.00345884  0.24559722    -0.01550
C86         C  0.15464862  0.00127206  0.25155988    -0.01500
C87         C  0.15515893  0.12935559  0.24897296    -0.01550
C88         C  0.02926867  0.13324077  0.25133261    -0.01550
C89         C  0.02741658  0.37891859  0.24660788    -0.01550
C90         C  0.39752951  0.37106054  0.25880273    -0.01550
O91         O  0.39280649  0.02028716  0.17327312    -0.56880
C92         C  0.38299244  0.50005482  0.04247581     0.75750
O93         O  0.31953639  0.43087368  0.15944608    -0.58030
C94         C  0.38460396  0.50060290  0.20642591     0.75720
C95         C  0.28920286  0.49379536  0.12483023     0.78120
Cd96       Cd  0.34431215  0.48463649  0.12518297     1.37460
O97         O  0.39375369  0.00080879  0.08209608    -0.56870
O98         O  0.31652833  0.01899066  0.12745574    -0.55680
C99         C  0.32163364  0.41705107  0.12360323     0.78080
O100        O  0.28892069  0.46716557  0.12282561    -0.58050
O101        O  0.35444591  0.49541040  0.04070354    -0.56510
O102        O  0.35653643  0.47678128  0.20422490    -0.56500
O103        O  0.33147568  0.43387093  0.08779434    -0.55670
O104        O  0.15597580  0.99248880  0.16992075    -0.56880
C105        C  0.17057278  0.49818628  0.04233480     0.75750
O106        O  0.23306609  0.46633164  0.12666549    -0.58030
C107        C  0.17060813  0.99813870  0.20777599     0.75720
C108        C  0.14934373  0.41743653  0.12768110     0.78120
Cd109      Cd  0.19402301  0.48345071  0.12497020     1.37470
O110        O  0.18492186  0.01995928  0.07260093    -0.56870
O111        O  0.15861420  0.43407453  0.16387788    -0.55680
C112        C  0.25826057  0.49330935  0.12450530     0.78080
O113        O  0.16475932  0.42990212  0.09140882    -0.58050
O114        O  0.17010124  0.47188026  0.04984029    -0.56510
O115        O  0.19846610  0.50092712  0.20638242    -0.56500
O116        O  0.25470643  0.01809584  0.12184912    -0.55670
O117        O  0.18067623  0.14282252  0.08018249    -0.56880
C118        C  0.16986425  0.14962867  0.20666671     0.75750
O119        O  0.22877778  0.24593289  0.13316477    -0.58030
C120        C  0.17249897  0.15266819  0.04502505     0.75720
C121        C  0.14420758  0.20788105  0.12814266     0.78120
Cd122      Cd  0.19202181  0.19019721  0.12713049     1.37460
O123        O  0.15657901  0.14034095  0.16803274    -0.56870
O124        O  0.15515277  0.20352310  0.16513371    -0.55680
C125        C  0.25469867  0.24504895  0.12892846     0.78080
O126        O  0.15851338  0.20853608  0.09146691    -0.58050
O127        O  0.19462954  0.17728784  0.20801425    -0.56510
O128        O  0.17722201  0.18125365  0.04671704    -0.56500
O129        O  0.25261584  0.21748376  0.12367110    -0.55670
O130        O  0.01910057  0.14224248  0.17183591    -0.56880
C131        C  0.03285408  0.14973988  0.04572946     0.75750
O132        O  0.06745383  0.24739748  0.12195233    -0.58030
C133        C  0.03436110  0.15402439  0.20886444     0.75720
C134        C  0.11382485  0.20741608  0.12715561     0.78120
Cd135      Cd  0.04924035  0.19123120  0.12536936     1.37460
O136        O  0.01559917  0.14121084  0.08148127    -0.56870
O137        O  0.09814462  0.20371378  0.16352045    -0.55680
C138        C  0.04116090  0.24761196  0.12250178     0.78080
O139        O  0.10036701  0.20665490  0.08965005    -0.58050
O140        O  0.05661075  0.17794277  0.04653077    -0.56510
O141        O  0.05451784  0.18369400  0.20750334    -0.56500
O142        O  0.01587814  0.22035628  0.12406846    -0.55670
O143        O  0.38817266  0.36869993  0.17723525    -0.56880
C144        C  0.37784332  0.35695383  0.05095767     0.75750
O145        O  0.28347168  0.30140800  0.13270074    -0.58030
C146        C  0.37716559  0.35686073  0.21595967     0.75720
C147        C  0.31877873  0.38519111  0.12524182     0.78120
Cd148      Cd  0.33897517  0.33826191  0.13258408     1.37470
O149        O  0.38714970  0.37197686  0.08854067    -0.56870
O150        O  0.32606755  0.37410503  0.09079315    -0.55680
C151        C  0.28484689  0.27550214  0.12998655     0.78080
O152        O  0.31503690  0.37055216  0.16265028    -0.58050
O153        O  0.35254135  0.32968071  0.05271060    -0.56510
O154        O  0.34865596  0.33363371  0.21608434    -0.56500
O155        O  0.31259055  0.27778934  0.12839700    -0.55670
O156        O  0.03702798  0.37814182  0.07890085    -0.56880
C157        C  0.03113804  0.36249862  0.20351368     0.75750
O158        O  0.06917844  0.30408444  0.12115813    -0.58030
C159        C  0.03293647  0.36425834  0.04059391     0.75720
C160        C  0.11890758  0.38788265  0.12645290     0.78120
Cd161      Cd  0.05244386  0.34353951  0.12212951     1.37460
O162        O  0.03351413  0.37504968  0.16473365    -0.56870
O163        O  0.10236847  0.37703132  0.16225544    -0.55680
C164        C  0.04203862  0.27893106  0.12180082     0.78080
O165        O  0.10582546  0.37500745  0.08892651    -0.58050
O166        O  0.03454267  0.33757561  0.20410785    -0.56510
O167        O  0.03675559  0.33957471  0.03982319    -0.56500
O168        O  0.01739607  0.28279548  0.12214601    -0.55670
C169        C  0.47057982  0.36070373  0.21695799    -0.04840
C170        C  0.49535233  0.38051001  0.24772703     0.01080
C171        C  0.48642836  0.39479505  0.28435341    -0.07490
C172        C  0.45509938  0.39120717  0.28529387    -0.04860
C173        C  0.43069366  0.37163754  0.25418638     0.01070
C174        C  0.43824878  0.35288727  0.22280679    -0.07400
C175        C  0.41388073  0.32131323  0.19982161     0.62980
H176        H  0.47531813  0.34775917  0.19030797     0.13680
H177        H  0.44915047  0.40334309  0.31206704     0.13690
C178        C  0.00722849  0.41256765  0.32541711     0.63220
F179        F  0.42586552  0.29989117  0.19731473    -0.21950
F180        F  0.40769981  0.32711394  0.15572945    -0.19280
F181        F  0.38563735  0.30547165  0.22411380    -0.18960
F182        F  0.00670174  0.44124811  0.33188379    -0.19010
F183        F  0.03896703  0.42061368  0.32297457    -0.19330
F184        F  0.49452252  0.39285551  0.36298001    -0.22000
C185        C  0.12112526  0.15665678  0.26096712    -0.04840
C186        C  0.12107730  0.12730863  0.25216001     0.01080
C187        C  0.09026670  0.09983548  0.24570953    -0.07490
C188        C  0.06251676  0.10211517  0.25755181    -0.04860
C189        C  0.06194261  0.13181260  0.25831693     0.01070
C190        C  0.09324770  0.15994678  0.26486258    -0.07400
C191        C  0.10142555  0.19418964  0.28020991     0.62980
H192        H  0.14424348  0.17825343  0.26479551     0.13680
H193        H  0.04098639  0.07964103  0.26334301     0.13690
C194        C  0.08400264  0.06979213  0.21866620     0.63220
F195        F  0.11714326  0.20052385  0.32187426    -0.21950
F196        F  0.07626700  0.20030238  0.28596215    -0.19280
F197        F  0.12226692  0.21633958  0.24900338    -0.18960
F198        F  0.07597392  0.04414019  0.24771883    -0.19010
F199        F  0.10923855  0.07438099  0.19074649    -0.19330
F200        F  0.05857882  0.06155302  0.18948435    -0.22000
C201        C  0.17081197  0.05728825  0.21817666    -0.04840
C202        C  0.15222031  0.03344760  0.25084477     0.01080
C203        C  0.13698622  0.04319406  0.28540653    -0.07490
C204        C  0.13885324  0.07393089  0.28236950    -0.04860
C205        C  0.15622552  0.09673181  0.24813519     0.01070
C206        C  0.17611124  0.08913891  0.21920779    -0.07400
C207        C  0.20576447  0.11361062  0.19273278     0.62980
H208        H  0.18398213  0.05223935  0.19246095     0.13680
H209        H  0.12629865  0.08043542  0.30776917     0.13690
C210        C  0.11848919  0.02366990  0.32702755     0.63220
F211        F  0.22715494  0.10216380  0.18444477    -0.21950
F212        F  0.22297502  0.14184815  0.21705715    -0.19280
F213        F  0.19687593  0.11977989  0.15084924    -0.18960
F214        F  0.11620371  0.99378337  0.33064332    -0.19010
F215        F  0.08750843  0.51913695  0.32586662    -0.19330
F216        F  0.13338980  0.04089244  0.36623431    -0.22000
C217        C  0.08734838  0.41076443  0.25805396    -0.04840
C218        C  0.05930921  0.41208986  0.24641860     0.01080
C219        C  0.06371484  0.44259841  0.23063382    -0.07490
C220        C  0.09420154  0.47026577  0.23623238    -0.04860
C221        C  0.12179705  0.46918926  0.25186400     0.01070
C222        C  0.11823597  0.43766025  0.25968545    -0.07400
C223        C  0.14458103  0.42901104  0.27097915     0.62980
H224        H  0.08520177  0.38733948  0.26464544     0.13680
H225        H  0.09672044  0.49323941  0.22611152     0.13690
C226        C  0.03837015  0.44749974  0.20528428     0.63220
F227        F  0.14248417  0.42114690  0.31680940    -0.21950
F228        F  0.17539306  0.45263461  0.26171114    -0.19280
F229        F  0.13988950  0.40221146  0.24586178    -0.18960
F230        F  0.01847998  0.45141545  0.23602261    -0.19010
F231        F  0.02040295  0.42220357  0.17599904    -0.19330
F232        F  0.05248929  0.47491568  0.17836218    -0.22000
C233        C  0.43853399  0.06511035  0.24877329    -0.04840
C234        C  0.44047627  0.03654792  0.23982818     0.01080
C235        C  0.47046113  0.04309000  0.21820889    -0.07490
C236        C  0.49687616  0.07499354  0.21875152    -0.04860
C237        C  0.49663110  0.10067874  0.24219198     0.01070
C238        C  0.46475100  0.09669913  0.24536442    -0.07400
C239        C  0.45448843  0.12166686  0.23221467     0.62980
H240        H  0.41501642  0.06298257  0.25372482     0.13680
H241        H  0.01818096  0.08066462  0.19922333     0.13690
C242        C  0.47531851  0.01927760  0.18975019     0.63220
F243        F  0.43687203  0.11141441  0.19213458    -0.21950
F244        F  0.47901200  0.15233617  0.22422774    -0.19280
F245        F  0.43463729  0.12342828  0.26527896    -0.18960
F246        F  0.45052104  0.00509059  0.15972875    -0.19010
F247        F  0.47827445  0.99749522  0.21761400    -0.19330
F248        F  0.50240045  0.03341601  0.16255874    -0.22000
C249        C  0.38513338  0.44633855  0.28290356    -0.04840
C250        C  0.40601843  0.46912343  0.24999378     0.01080
C251        C  0.41765350  0.45450743  0.21744240    -0.07490
C252        C  0.42412914  0.43024725  0.23411332    -0.04860
C253        C  0.40107214  0.40579451  0.26245981     0.01070
C254        C  0.37813225  0.41366675  0.28298270    -0.07400
C255        C  0.34447891  0.39009382  0.30035683     0.62980
H256        H  0.36992789  0.45184870  0.30439148     0.13680
H257        H  0.43950556  0.42431787  0.21347082     0.13690
C258        C  0.40287968  0.44436469  0.16990952     0.63220
F259        F  0.34435070  0.39062469  0.34756257    -0.21950
F260        F  0.33282880  0.35889102  0.28517977    -0.19280
F261        F  0.32280582  0.39956600  0.28500330    -0.18960
F262        F  0.42305134  0.43885694  0.14153243    -0.19010
F263        F  0.39582526  0.96569114  0.14840744    -0.19330
F264        F  0.37457710  0.41604753  0.17416192    -0.22000
C265        C  0.43727768  0.35698082  0.03450743    -0.04840
C266        C  0.43061780  0.37659349  0.00534754     0.01080
C267        C  0.45453128  0.39459126  0.47136973    -0.07490
C268        C  0.48365024  0.39306289  0.47069430    -0.04860
C269        C  0.49123924  0.37548631  0.00245325     0.01070
C270        C  0.46524294  0.35390872  0.03184113    -0.07400
C271        C  0.46337875  0.32485609  0.05754991     0.62980
H272        H  0.41926676  0.34195963  0.05885377     0.13680
H273        H  0.50198997  0.40725737  0.44596928     0.13690
C274        C  0.45251139  0.41857687  0.43841378     0.63220
F275        F  0.43204110  0.30245824  0.06871140    -0.21950
F276        F  0.48016384  0.33449630  0.09817191    -0.19280
F277        F  0.47445434  0.30825806  0.03089947    -0.18960
F278        F  0.46375382  0.44824108  0.95917524    -0.19010
F279        F  0.42216529  0.40858168  0.42188971    -0.19330
F280        F  0.47144361  0.42349684  0.40080828    -0.22000
C281        C  0.10026894  0.11554406  0.03922247    -0.04840
C282        C  0.12168618  0.12905399  0.50200231     0.01080
C283        C  0.11158789  0.14416309  0.46808294    -0.07490
C284        C  0.07901195  0.13592245  0.46553365    -0.04860
C285        C  0.05740950  0.12263933  0.50250521     0.01070
C286        C  0.06858932  0.11126305  0.04011398    -0.07400
C287        C  0.04960254  0.09499779  0.08312272     0.62980
H288        H  0.10872326  0.10843285  0.06908762     0.13680
H289        H  0.07220808  0.14435526  0.43570376     0.13690
C290        C  0.13414755  0.17516156  0.44239840     0.63220
F291        F  0.05129457  0.06706646  0.09074294    -0.21950
F292        F  0.01755714  0.08621024  0.08116511    -0.19280
F293        F  0.06317232  0.11553156  0.12009270    -0.18960
F294        F  0.14392541  0.16808331  0.40166467    -0.19010
F295        F  0.16032681  0.19521676  0.46879552    -0.19330
F296        F  0.11915270  0.19314997  0.43194762    -0.22000
C297        C  0.12891568  0.06875944  0.02236984    -0.04840
C298        C  0.15675218  0.09809677  0.01078984     0.01080
C299        C  0.18588617  0.09564079  0.50715145    -0.07490
C300        C  0.18309725  0.06474715  0.50134104    -0.04860
C301        C  0.15397582  0.03571941  0.00749044     0.01070
C302        C  0.13051731  0.04029553  0.03143259    -0.07400
C303        C  0.11938360  0.02591662  0.07877863     0.62980
H304        H  0.10638260  0.06777014  0.02973733     0.13680
H305        H  0.20487597  0.06337635  0.49575642     0.13690
C306        C  0.22070901  0.12260531  0.51310803     0.63220
F307        F  0.14403583  0.04290028  0.10949604    -0.21950
F308        F  0.11145190  0.99382611  0.08087958    -0.19280
F309        F  0.09311313  0.02882130  0.09288214    -0.18960
F310        F  0.22506144  0.15330594  0.01705104    -0.19010
F311        F  0.23941140  0.12253213  0.47696645    -0.19330
F312        F  0.23287237  0.11644697  0.55242432    -0.22000
C313        C  0.09099243  0.47168600  0.49351665    -0.04840
C314        C  0.12027923  0.47060327  0.99237297     0.01080
C315        C  0.11645155  0.43874825  0.98442326    -0.07490
C316        C  0.08536456  0.41169611  0.98550027    -0.04860
C317        C  0.05662340  0.41267390  0.99455954     0.01070
C318        C  0.06051437  0.44430029  0.50192848    -0.07400
C319        C  0.03567023  0.45179814  0.52338426     0.62980
H320        H  0.09128258  0.49435901  0.49077906     0.13680
H321        H  0.08355254  0.38817774  0.98039677     0.13690
C322        C  0.14201032  0.42902835  0.97193514     0.63220
F323        F  0.05040534  0.47924832  0.05009736    -0.21950
F324        F  0.01490443  0.42779342  0.05228684    -0.19280
F325        F  0.01925868  0.45788342  0.48957501    -0.18960
F326        F  0.14055211  0.40644021  0.00300089    -0.19010
F327        F  0.17333348  0.45309226  0.47062912    -0.19330
F328        F  0.13491483  0.41470938  0.42905600    -0.22000
C329        C  0.49202451  0.06985206  0.97770854    -0.04840
C330        C  0.49431265  0.09563104  0.00495296     0.01080
C331        C  0.46450509  0.09195209  0.52220231    -0.07490
C332        C  0.43809707  0.06076648  0.52482085    -0.04860
C333        C  0.43621652  0.03405532  0.00027048     0.01070
C334        C  0.46290483  0.04087777  0.97079268    -0.07400
C335        C  0.46283424  0.02089719  0.92960670     0.62980
H336        H  0.51281380  0.07350797  0.95794273     0.13680
H337        H  0.41697747  0.05860134  0.54198539     0.13690
C338        C  0.45646561  0.11873952  0.53383678     0.63220
F339        F  0.46641120  0.03855736  0.89041599    -0.21950
F340        F  0.43541180  0.49170467  0.42470938    -0.19280
F341        F  0.48854796  0.01499937  0.93211291    -0.18960
F342        F  0.42811479  0.11236392  0.51218706    -0.19010
F343        F  0.47910180  0.14900234  0.01975519    -0.19330
F344        F  0.45183163  0.11925783  0.08050652    -0.22000
C345        C  0.37501882  0.44219401  0.48927461    -0.04840
C346        C  0.40390949  0.46982815  0.50239051     0.01080
C347        C  0.42683600  0.46395775  0.02661768    -0.07490
C348        C  0.42189776  0.43207378  0.02778568    -0.04860
C349        C  0.39577252  0.40558167  0.50634015     0.01070
C350        C  0.36963077  0.41046373  0.49267608    -0.07400
C351        C  0.33491166  0.38459927  0.48334025     0.62980
H352        H  0.35483439  0.44517625  0.47876658     0.13680
H353        H  0.43969945  0.42783558  0.04458095     0.13690
C354        C  0.45731441  0.48951847  0.05048513     0.63220
F355        F  0.31410614  0.39203839  0.50703915    -0.21950
F356        F  0.32763907  0.35398981  0.99640213    -0.19280
F357        F  0.32839776  0.38426690  0.43728132    -0.18960
F358        F  0.45261766  0.51255204  0.07262024    -0.19010
F359        F  0.48195052  0.00408455  0.51939098    -0.19330
F360        F  0.46791673  0.47597570  0.08335991    -0.22000
C361        C  0.40311067  0.50235104  0.50013552    -0.01550
C362        C  0.15395398  0.00254850  0.50010436    -0.01550
C363        C  0.15591137  0.13089486  0.50432527    -0.01550
C364        C  0.02693499  0.12777194  0.50423256    -0.01550
C365        C  0.02552470  0.37815445  0.49846864    -0.01550
C366        C  0.39571402  0.37266115  0.50661163    -0.01550
O367        O  0.04315929  0.36728007  0.82256181    -0.56880
C368        C  0.02311773  0.35820901  0.95545028     0.75750
O369        O  0.45601627  0.30174402  0.83845710    -0.58030
C370        C  0.02418391  0.35782524  0.78848993     0.75720
C371        C  0.01690537  0.26295057  0.87507572     0.78120
Cd372      Cd  0.00908785  0.31974935  0.87195962     1.37470
O373        O  0.03895051  0.37032323  0.91896581    -0.56870
O374        O  0.04213282  0.29026635  0.87395889    -0.55680
C375        C  0.44367758  0.30300892  0.87624799     0.78080
O376        O  0.49058591  0.26309355  0.87374903    -0.58050
O377        O  0.00349557  0.32838322  0.95351134    -0.56510
O378        O  0.50032512  0.32980486  0.79197704    -0.56500
O379        O  0.46096442  0.30982591  0.91151131    -0.55670
O380        O  0.03578056  0.14533284  0.83357547    -0.56880
C381        C  0.02397140  0.14447880  0.96116217     0.75750
O382        O  0.48947927  0.20654414  0.88281850    -0.58030
C383        C  0.02412967  0.14751236  0.79555392     0.75720
C384        C  0.44159706  0.12013237  0.87961642     0.78120
Cd385      Cd  0.00695340  0.16723187  0.88023565     1.37460
O386        O  0.01611129  0.12936419  0.92353411    -0.56870
O387        O  0.45845992  0.13059394  0.84426364    -0.55680
C388        C  0.01628414  0.23173844  0.87788255     0.78080
O389        O  0.45362688  0.13472095  0.91676867    -0.58050
O390        O  0.02788704  0.17293887  0.96041348    -0.56510
O391        O  0.00824479  0.16241661  0.79694393    -0.56500
O392        O  0.04095634  0.22802803  0.87517088    -0.55670
O393        O  0.36876244  0.35903636  0.93112281    -0.56880
C394        C  0.38226488  0.35113567  0.80156722     0.75750
O395        O  0.39566656  0.29693946  0.84368708    -0.58030
C396        C  0.37914823  0.35069919  0.96559823     0.75720
C397        C  0.29656635  0.25725717  0.88475807     0.78120
Cd398      Cd  0.36010450  0.31243689  0.88339061     1.37470
O399        O  0.38387950  0.36388318  0.84039949    -0.56870
O400        O  0.29946546  0.28491456  0.87777576    -0.55680
C401        C  0.41226327  0.30046373  0.87901004     0.78080
O402        O  0.32208070  0.25614833  0.89225566    -0.58050
O403        O  0.36850755  0.32066439  0.80077973    -0.56510
O404        O  0.37699661  0.32305655  0.96324709    -0.56500
O405        O  0.40205120  0.30505662  0.91665838    -0.55670
O406        O  0.40564479  0.51277957  0.82851253    -0.56880
C407        C  0.38635089  0.00580833  0.95732019     0.75750
O408        O  0.39758634  0.07514278  0.91337670    -0.58030
C409        C  0.39189214  0.00834781  0.79008962     0.75720
C410        C  0.30164373  0.01413815  0.87371634     0.78120
Cd411      Cd  0.36660560  0.02341906  0.87364604     1.37470
O412        O  0.37831833  0.48721546  0.92257313    -0.56870
O413        O  0.30524368  0.48936624  0.87676269    -0.55680
C414        C  0.41199086  0.08974973  0.87757970     0.78080
O415        O  0.32696884  0.04087089  0.86972178    -0.58050
O416        O  0.38154420  0.02966272  0.95400668    -0.56510
O417        O  0.36528885  0.00852548  0.79089177    -0.56500
O418        O  0.40227153  0.07490678  0.83998632    -0.55670
O419        O  0.16696468  0.48658470  0.82696862    -0.56880
C420        C  0.17412147  0.00672146  0.95714570     0.75750
O421        O  0.27052679  0.04033929  0.87753646    -0.58030
C422        C  0.17581306  0.00554481  0.79298646     0.75720
C423        C  0.22903664  0.08662495  0.87657906     0.78120
Cd424      Cd  0.21393562  0.02196171  0.87496158     1.37470
O425        O  0.16237084  0.50309644  0.91737423    -0.56870
O426        O  0.21839790  0.06828996  0.91059667    -0.55680
C427        C  0.27050223  0.01377947  0.87506384     0.78080
O428        O  0.23754168  0.07659258  0.84195874    -0.58050
O429        O  0.20375484  0.01473478  0.95885274    -0.56510
O430        O  0.20351520  0.02982527  0.79578667    -0.56500
O431        O  0.24312331  0.48856203  0.87352405    -0.55670
O432        O  0.16460425  0.12814920  0.92324356    -0.56880
C433        C  0.17509518  0.14661703  0.79121940     0.75750
O434        O  0.26581356  0.20077332  0.89012432    -0.58030
C435        C  0.17390795  0.14453122  0.95977291     0.75720
C436        C  0.22677512  0.11576064  0.87633714     0.78120
Cd437      Cd  0.21025554  0.16480261  0.87542838     1.37470
O438        O  0.16379104  0.15386703  0.82590031    -0.56870
O439        O  0.20727105  0.11775828  0.90340605    -0.55680
C440        C  0.26592847  0.22709082  0.88302872     0.78080
O441        O  0.24142378  0.13846318  0.84825139    -0.58050
O442        O  0.20379352  0.15234881  0.79463585    -0.56510
O443        O  0.19892325  0.17192609  0.95647050    -0.56500
O444        O  0.23916777  0.22547391  0.87326760    -0.55670
C445        C  0.40706458  0.00345963  0.74560165    -0.01550
C446        C  0.15464832  0.00127148  0.75155975    -0.01500
C447        C  0.15515931  0.12935516  0.74897171    -0.01550
C448        C  0.02927134  0.13324420  0.75133480    -0.01550
C449        C  0.02741761  0.37891755  0.74660855    -0.01550
C450        C  0.39753018  0.37106067  0.75880400    -0.01550
O451        O  0.39280804  0.02028382  0.67327623    -0.56880
C452        C  0.38299422  0.50005577  0.54247597     0.75750
O453        O  0.31953914  0.43087544  0.65944758    -0.58030
C454        C  0.38460519  0.50060400  0.70642630     0.75720
C455        C  0.28920466  0.49379639  0.62483022     0.78120
Cd456      Cd  0.34431400  0.48463774  0.62518317     1.37460
O457        O  0.39375058  0.00081239  0.58210259    -0.56870
O458        O  0.31652858  0.01898937  0.62745798    -0.55680
C459        C  0.32163559  0.41705237  0.62360472     0.78080
O460        O  0.28892266  0.46716670  0.62282452    -0.58050
O461        O  0.35444785  0.49541181  0.54070394    -0.56510
O462        O  0.35653761  0.47678249  0.70422513    -0.56500
O463        O  0.33147686  0.43387175  0.58779532    -0.55670
O464        O  0.15597495  0.99248679  0.66992096    -0.56880
C465        C  0.17057518  0.49818781  0.54233471     0.75750
O466        O  0.23306796  0.46633228  0.62666469    -0.58030
C467        C  0.17060778  0.99813804  0.70777593     0.75720
C468        C  0.14934495  0.41743652  0.62768038     0.78120
Cd469      Cd  0.19402459  0.48345078  0.62496955     1.37470
O470        O  0.18491910  0.01995863  0.57260417    -0.56870
O471        O  0.15861618  0.43407424  0.66387728    -0.55680
C472        C  0.25826229  0.49331015  0.62450534     0.78080
O473        O  0.16475966  0.42990248  0.59140770    -0.58050
O474        O  0.17010904  0.47188378  0.54983530    -0.56510
O475        O  0.19846733  0.50092705  0.70638177    -0.56500
O476        O  0.25470720  0.01809561  0.62185051    -0.55670
O477        O  0.18067825  0.14282267  0.58018098    -0.56880
C478        C  0.16986547  0.14962815  0.70666561     0.75750
O479        O  0.22877946  0.24593272  0.63316588    -0.58030
C480        C  0.17250187  0.15266918  0.54502350     0.75720
C481        C  0.14420908  0.20787994  0.62814049     0.78120
Cd482      Cd  0.19202396  0.19019704  0.62712981     1.37460
O483        O  0.15658077  0.14034049  0.66803130    -0.56870
O484        O  0.15515387  0.20352178  0.66513176    -0.55680
C485        C  0.25470052  0.24504915  0.62892931     0.78080
O486        O  0.15851565  0.20853582  0.59146515    -0.58050
O487        O  0.19463090  0.17728721  0.70801362    -0.56510
O488        O  0.17722574  0.18125489  0.54671607    -0.56500
O489        O  0.25261804  0.21748415  0.62367130    -0.55670
O490        O  0.01910003  0.14224299  0.67183753    -0.56880
C491        C  0.03285729  0.14974209  0.54572172     0.75750
O492        O  0.06745547  0.24739682  0.62195256    -0.58030
C493        C  0.03436241  0.15402600  0.70886459     0.75720
C494        C  0.11382615  0.20741452  0.62715280     0.78120
Cd495      Cd  0.04924159  0.19123034  0.62536586     1.37460
O496        O  0.01560374  0.14121028  0.58147478    -0.56870
O497        O  0.09814510  0.20371076  0.66351714    -0.55680
C498        C  0.04116254  0.24761133  0.62250032     0.78080
O499        O  0.10036903  0.20665465  0.58964716    -0.58050
O500        O  0.05661228  0.17794595  0.54652421    -0.56510
O501        O  0.05452060  0.18369501  0.70749990    -0.56500
O502        O  0.01587968  0.22035561  0.62406423    -0.55670
O503        O  0.38817493  0.36869824  0.67723566    -0.56880
C504        C  0.37784427  0.35695472  0.55095829     0.75750
O505        O  0.28347300  0.30140823  0.63270157    -0.58030
C506        C  0.37716659  0.35686099  0.71596056     0.75720
C507        C  0.31878050  0.38519236  0.62524360     0.78120
Cd508      Cd  0.33897641  0.33826268  0.63258499     1.37470
O509        O  0.38715077  0.37197773  0.58854132    -0.56870
O510        O  0.32606799  0.37410549  0.59079450    -0.55680
C511        C  0.28484854  0.27550254  0.62998758     0.78080
O512        O  0.31503978  0.37055408  0.66265237    -0.58050
O513        O  0.35254220  0.32968168  0.55271123    -0.56510
O514        O  0.34865593  0.33363595  0.71608553    -0.56500
O515        O  0.31259234  0.27779010  0.62839825    -0.55670
O516        O  0.03703040  0.37814206  0.57890275    -0.56880
C517        C  0.03113885  0.36249747  0.70351432     0.75750
O518        O  0.06918015  0.30408388  0.62116034    -0.58030
C519        C  0.03293898  0.36425890  0.54059559     0.75720
C520        C  0.11890899  0.38788241  0.62645279     0.78120
Cd521      Cd  0.05244543  0.34353890  0.62213046     1.37460
O522        O  0.03351463  0.37504834  0.66473425    -0.56870
O523        O  0.10237029  0.37703099  0.66225568    -0.55680
C524        C  0.04204031  0.27893046  0.62180045     0.78080
O525        O  0.10582661  0.37500701  0.58892663    -0.58050
O526        O  0.03454402  0.33757478  0.70410859    -0.56510
O527        O  0.03675757  0.33957494  0.53982441    -0.56500
O528        O  0.01739774  0.28279486  0.62214393    -0.55670
C529        C  0.47057975  0.36070279  0.71695945    -0.04840
C530        C  0.49535266  0.38050955  0.74772760     0.01080
C531        C  0.48642916  0.39479513  0.78435389    -0.07490
C532        C  0.45510025  0.39120745  0.78529474    -0.04860
C533        C  0.43069413  0.37163722  0.75418822     0.01070
C534        C  0.43824879  0.35288623  0.72280937    -0.07400
C535        C  0.41388064  0.32131147  0.69982601     0.62980
H536        H  0.47531760  0.34775751  0.69030992     0.13680
H537        H  0.44915173  0.40334396  0.81206747     0.13690
C538        C  0.00723116  0.41256623  0.82541960     0.63220
F539        F  0.42586465  0.29988858  0.69732492    -0.21950
F540        F  0.40770177  0.32711053  0.65573183    -0.19280
F541        F  0.38563620  0.30547172  0.72411619    -0.18960
F542        F  0.00670251  0.44124530  0.83189187    -0.19010
F543        F  0.03897025  0.42061491  0.82297352    -0.19330
F544        F  0.49452376  0.39285584  0.86298038    -0.22000
C545        C  0.12112726  0.15665800  0.76096300    -0.04840
C546        C  0.12107801  0.12730899  0.75215792     0.01080
C547        C  0.09026674  0.09983598  0.74571039    -0.07490
C548        C  0.06251787  0.10211725  0.75755349    -0.04860
C549        C  0.06194489  0.13181526  0.75831689     0.01070
C550        C  0.09325054  0.15994920  0.76485921    -0.07400
C551        C  0.10142990  0.19419299  0.78020423     0.62980
H552        H  0.14424593  0.17825435  0.76478957     0.13680
H553        H  0.04098717  0.07964373  0.76334660     0.13690
C554        C  0.08400073  0.06979094  0.71866971     0.63220
F555        F  0.11714792  0.20052790  0.82186838    -0.21950
F556        F  0.07627225  0.20030732  0.78595546    -0.19280
F557        F  0.12227162  0.21634154  0.74899654    -0.18960
F558        F  0.07597531  0.04414115  0.74772507    -0.19010
F559        F  0.10923500  0.07437920  0.69074661    -0.19330
F560        F  0.05857359  0.06154841  0.68949230    -0.22000
C561        C  0.17081093  0.05728715  0.71817510    -0.04840
C562        C  0.15221990  0.03344693  0.75084414     0.01080
C563        C  0.13698648  0.04319383  0.78540632    -0.07490
C564        C  0.13885354  0.07393066  0.78236893    -0.04860
C565        C  0.15622528  0.09673113  0.74813390     0.01070
C566        C  0.17611077  0.08913796  0.71920647    -0.07400
C567        C  0.20576515  0.11360965  0.69273337     0.62980
H568        H  0.18398057  0.05223802  0.69245876     0.13680
H569        H  0.12629946  0.08043557  0.80776894     0.13690
C570        C  0.11849012  0.02367014  0.82702807     0.63220
F571        F  0.22715534  0.10216224  0.68444705    -0.21950
F572        F  0.22297541  0.14184674  0.71705885    -0.19280
F573        F  0.19687838  0.11977993  0.65084911    -0.18960
F574        F  0.11620482  0.99378372  0.83064432    -0.19010
F575        F  0.08750789  0.51913563  0.82586251    -0.19330
F576        F  0.13339124  0.04089319  0.86623425    -0.22000
C577        C  0.08734942  0.41076352  0.75805447    -0.04840
C578        C  0.05931024  0.41208874  0.74641871     0.01080
C579        C  0.06371571  0.44259710  0.73063305    -0.07490
C580        C  0.09420237  0.47026455  0.73623090    -0.04860
C581        C  0.12179791  0.46918832  0.75186276     0.01070
C582        C  0.11823700  0.43765943  0.75968501    -0.07400
C583        C  0.14458223  0.42901041  0.77097842     0.62980
H584        H  0.08520287  0.38733870  0.76464683     0.13680
H585        H  0.09672120  0.49323807  0.72610958     0.13690
C586        C  0.03837062  0.44749826  0.70528435     0.63220
F587        F  0.14248560  0.42114628  0.81680864    -0.21950
F588        F  0.17539418  0.45263412  0.76171020    -0.19280
F589        F  0.13989070  0.40221087  0.74586097    -0.18960
F590        F  0.01848065  0.45141370  0.73602342    -0.19010
F591        F  0.02040333  0.42220213  0.67599912    -0.19330
F592        F  0.05248925  0.47491429  0.67836240    -0.22000
C593        C  0.43853956  0.06511103  0.74876797    -0.04840
C594        C  0.44048124  0.03654779  0.73982872     0.01080
C595        C  0.47046687  0.04308708  0.71821419    -0.07490
C596        C  0.49688165  0.07499085  0.71875076    -0.04860
C597        C  0.49663734  0.10067779  0.74218709     0.01070
C598        C  0.46475748  0.09669929  0.74535784    -0.07400
C599        C  0.45449614  0.12166783  0.73220747     0.62980
H600        H  0.41502217  0.06298395  0.75371824     0.13680
H601        H  0.01818267  0.08067025  0.69922425     0.13690
C602        C  0.47532860  0.01926917  0.68977465     0.63220
F603        F  0.43687952  0.11141547  0.69212757    -0.21950
F604        F  0.47902039  0.15233665  0.72422000    -0.19280
F605        F  0.43464562  0.12343050  0.76527162    -0.18960
F606        F  0.45053341  0.00507084  0.65975170    -0.19010
F607        F  0.47828642  0.99749603  0.71765668    -0.19330
F608        F  0.50241133  0.03340316  0.66258483    -0.22000
C609        C  0.38513580  0.44633982  0.78290563    -0.04840
C610        C  0.40601941  0.46912407  0.74999405     0.01080
C611        C  0.41765418  0.45450760  0.71744264    -0.07490
C612        C  0.42412957  0.43024707  0.73411297    -0.04860
C613        C  0.40107320  0.40579490  0.76246073     0.01070
C614        C  0.37813441  0.41366792  0.78298533    -0.07400
C615        C  0.34448187  0.39009542  0.80036249     0.62980
H616        H  0.36993146  0.45185045  0.80439526     0.13680
H617        H  0.43950505  0.42431689  0.71346958     0.13690
C618        C  0.40288307  0.44436671  0.66990793     0.63220
F619        F  0.34435656  0.39062490  0.84756825    -0.21950
F620        F  0.33283001  0.35889300  0.78518260    -0.19280
F621        F  0.32280844  0.39956888  0.78501478    -0.18960
F622        F  0.42305887  0.43886504  0.64153122    -0.19010
F623        F  0.39583314  0.96568895  0.64840868    -0.19330
F624        F  0.37458288  0.41604656  0.67415500    -0.22000
C625        C  0.43727818  0.35698085  0.53450791    -0.04840
C626        C  0.43061872  0.37659397  0.50534832     0.01080
C627        C  0.45453004  0.39459059  0.97136850    -0.07490
C628        C  0.48364913  0.39306250  0.97069289    -0.04860
C629        C  0.49124001  0.37548642  0.50245465     0.01070
C630        C  0.46524343  0.35390870  0.53184201    -0.07400
C631        C  0.46337899  0.32485589  0.55755062     0.62980
H632        H  0.41926696  0.34195944  0.55885375     0.13680
H633        H  0.50198870  0.40725701  0.94596773     0.13690
C634        C  0.45250975  0.41857587  0.93841235     0.63220
F635        F  0.43204131  0.30245820  0.56871221    -0.21950
F636        F  0.48016417  0.33449590  0.59817257    -0.19280
F637        F  0.47445433  0.30825775  0.53089993    -0.18960
F638        F  0.46375506  0.44824186  0.45917710    -0.19010
F639        F  0.42216341  0.40858072  0.92188926    -0.19330
F640        F  0.47144127  0.42349520  0.90080614    -0.22000
C641        C  0.10027110  0.11554597  0.53921662    -0.04840
C642        C  0.12168259  0.12905112  0.00200618     0.01080
C643        C  0.11158238  0.14415821  0.96808643    -0.07490
C644        C  0.07900621  0.13591680  0.96553969    -0.04860
C645        C  0.05740566  0.12263584  0.00251389     0.01070
C646        C  0.06859137  0.11126469  0.54010542    -0.07400
C647        C  0.04960279  0.09499788  0.58311227     0.62980
H648        H  0.10872423  0.10843391  0.56908216     0.13680
H649        H  0.07220068  0.14434724  0.93570892     0.13690
C650        C  0.13414039  0.17515546  0.94239820     0.63220
F651        F  0.05129730  0.06706806  0.59073456    -0.21950
F652        F  0.01755679  0.08620728  0.58115000    -0.19280
F653        F  0.06316889  0.11553172  0.62008314    -0.18960
F654        F  0.14391714  0.16807536  0.90166486    -0.19010
F655        F  0.16032028  0.19521264  0.96879297    -0.19330
F656        F  0.11914431  0.19314246  0.93194590    -0.22000
C657        C  0.12891757  0.06876098  0.52236619    -0.04840
C658        C  0.15675458  0.09809815  0.51078742     0.01080
C659        C  0.18588385  0.09563982  0.00715200    -0.07490
C660        C  0.18309525  0.06474637  0.00134077    -0.04860
C661        C  0.15397742  0.03572049  0.50748987     0.01070
C662        C  0.13051880  0.04029712  0.53143062    -0.07400
C663        C  0.11938576  0.02591996  0.57877762     0.62980
H664        H  0.10638429  0.06777180  0.52973191     0.13680
H665        H  0.20487410  0.06337606  0.99575509     0.13690
C666        C  0.22070666  0.12260479  0.01310644     0.63220
F667        F  0.14403803  0.04290526  0.60949428    -0.21950
F668        F  0.11145494  0.99382976  0.58088112    -0.19280
F669        F  0.09311497  0.02882446  0.59288000    -0.18960
F670        F  0.22506439  0.15330684  0.51704939    -0.19010
F671        F  0.23940745  0.12253295  0.97696186    -0.19330
F672        F  0.23287229  0.11644600  0.05242006    -0.22000
C673        C  0.09099018  0.47168465  0.99351698    -0.04840
C674        C  0.12028156  0.47060476  0.49237339     0.01080
C675        C  0.11645411  0.43874977  0.48442432    -0.07490
C676        C  0.08536739  0.41169747  0.48550345    -0.04860
C677        C  0.05662618  0.41267522  0.49456192     0.01070
C678        C  0.06051214  0.44429889  0.00192871    -0.07400
C679        C  0.03566872  0.45179644  0.02338744     0.62980
H680        H  0.09128031  0.49435773  0.99078086     0.13680
H681        H  0.08355551  0.38817907  0.48040098     0.13690
C682        C  0.14201252  0.42902983  0.47193404     0.63220
F683        F  0.05040614  0.47925123  0.55009185    -0.21950
F684        F  0.01490623  0.42779615  0.55228524    -0.19280
F685        F  0.01925745  0.45788363  0.98958010    -0.18960
F686        F  0.14055654  0.40644322  0.50300080    -0.19010
F687        F  0.17333155  0.45309054  0.97063482    -0.19330
F688        F  0.13491502  0.41470984  0.92905581    -0.22000
C689        C  0.49202592  0.06984789  0.47772342    -0.04840
C690        C  0.49431311  0.09562982  0.50495989     0.01080
C691        C  0.46450515  0.09195135  0.02219993    -0.07490
C692        C  0.43809887  0.06076493  0.02481985    -0.04860
C693        C  0.43621533  0.03405489  0.50027821     0.01070
C694        C  0.46290631  0.04087341  0.47080826    -0.07400
C695        C  0.46283937  0.02088858  0.42963012     0.62980
H696        H  0.51281608  0.07350128  0.45796197     0.13680
H697        H  0.41698036  0.05859855  0.04198921     0.13690
C698        C  0.45646356  0.11873745  0.03383332     0.63220
F699        F  0.46643098  0.03854903  0.39043462    -0.21950
F700        F  0.43541065  0.49170340  0.92471015    -0.19280
F701        F  0.48854667  0.01498197  0.43215716    -0.18960
F702        F  0.42811204  0.11235948  0.01218357    -0.19010
F703        F  0.47910518  0.14900422  0.51976020    -0.19330
F704        F  0.45183356  0.11925916  0.58051005    -0.22000
C705        C  0.37501741  0.44219308  0.98927392    -0.04840
C706        C  0.40390785  0.46982723  0.00239055     0.01080
C707        C  0.42683778  0.46395869  0.52661738    -0.07490
C708        C  0.42189900  0.43207453  0.52778645    -0.04860
C709        C  0.39577131  0.40558083  0.00633945     0.01070
C710        C  0.36962947  0.41046280  0.99267539    -0.07400
C711        C  0.33491039  0.38459822  0.98333977     0.62980
H712        H  0.35483304  0.44517528  0.97876546     0.13680
H713        H  0.43970048  0.42783615  0.54458194     0.13690
C714        C  0.45731697  0.48951969  0.55048294     0.63220
F715        F  0.31410484  0.39203730  0.00703867    -0.21950
F716        F  0.32764016  0.35399079  0.49640248    -0.19280
F717        F  0.32839630  0.38426566  0.93728091    -0.18960
F718        F  0.45262051  0.51255306  0.57261924    -0.19010
F719        F  0.48196059  0.00409187  0.01933778    -0.19330
F720        F  0.46792105  0.47597750  0.58335610    -0.22000
C721        C  0.40311451  0.00234730  0.00013251    -0.01550
C722        C  0.15394865  0.50254727  0.00010456    -0.01550
C723        C  0.15590491  0.63089325  0.00432632    -0.01550
C724        C  0.02692639  0.62776574  0.00423781    -0.01550
C725        C  0.02552601  0.87815371  0.99846809    -0.01550
C726        C  0.39570055  0.87264729  0.00661338    -0.01550
O727        O  0.04316341  0.86728263  0.32256044    -0.56880
C728        C  0.02312302  0.85821102  0.45545080     0.75750
O729        O  0.45601852  0.80174665  0.33846047    -0.58030
C730        C  0.02418827  0.85782698  0.28848834     0.75720
C731        C  0.01690818  0.76295325  0.37508060     0.78120
Cd732      Cd  0.00909196  0.81975243  0.37195949     1.37470
O733        O  0.03895469  0.87032617  0.41896579    -0.56870
O734        O  0.04213614  0.79026834  0.37395427    -0.55680
C735        C  0.44368079  0.80301354  0.37625123     0.78080
O736        O  0.49058707  0.76309993  0.37375817    -0.58050
O737        O  0.00350214  0.82838493  0.45351183    -0.56510
O738        O  0.50032837  0.82980911  0.29197715    -0.56500
O739        O  0.46096924  0.80983483  0.41151338    -0.55670
O740        O  0.03576756  0.64532174  0.33357457    -0.56880
C741        C  0.02396904  0.64447847  0.46115815     0.75750
O742        O  0.48947719  0.70654970  0.38283004    -0.58030
C743        C  0.02412171  0.64750668  0.29555177     0.75720
C744        C  0.44159058  0.62013614  0.37961996     0.78120
Cd745      Cd  0.00694921  0.66723194  0.38023315     1.37460
O746        O  0.01610812  0.62936371  0.42353003    -0.56870
O747        O  0.45845104  0.63060258  0.34426592    -0.55680
C748        C  0.01628566  0.73174058  0.37788768     0.78080
O749        O  0.45362222  0.63472060  0.41677404    -0.58050
O750        O  0.02788513  0.67293877  0.46040966    -0.56510
O751        O  0.00824217  0.66241642  0.29694075    -0.56500
O752        O  0.04095610  0.72802785  0.37516485    -0.55670
O753        O  0.36876345  0.85903384  0.43112929    -0.56880
C754        C  0.38226653  0.85113433  0.30157197     0.75750
O755        O  0.39566738  0.79693868  0.34369174    -0.58030
C756        C  0.37915019  0.85069670  0.46560372     0.75720
C757        C  0.29656657  0.75725696  0.38476084     0.78120
Cd758      Cd  0.36010535  0.81243580  0.38339535     1.37470
O759        O  0.38387796  0.86388214  0.34040309    -0.56870
O760        O  0.29946656  0.78491483  0.37777984    -0.55680
C761        C  0.41226538  0.80046545  0.37901416     0.78080
O762        O  0.32208046  0.75614713  0.39225830    -0.58050
O763        O  0.36851234  0.82066320  0.30078593    -0.56510
O764        O  0.37699878  0.82305417  0.46325169    -0.56500
O765        O  0.40205335  0.80505815  0.41666267    -0.55670
O766        O  0.40564753  0.01277643  0.32851199    -0.56880
C767        C  0.38634799  0.50581235  0.45732176     0.75750
O768        O  0.39758173  0.57514398  0.41337815    -0.58030
C769        C  0.39188478  0.50834668  0.29008769     0.75720
C770        C  0.30163979  0.51413889  0.37371603     0.78120
Cd771      Cd  0.36660183  0.52342109  0.37364588     1.37470
O772        O  0.37832201  0.98721234  0.42257704    -0.56870
O773        O  0.30524692  0.98936423  0.37676365    -0.55680
C774        C  0.41198558  0.58975244  0.37758176     0.78080
O775        O  0.32696455  0.54087152  0.36971777    -0.58050
O776        O  0.38153778  0.52966460  0.45400943    -0.56510
O777        O  0.36528230  0.50852594  0.29089123    -0.56500
O778        O  0.40226691  0.57491023  0.33998772    -0.55670
O779        O  0.16696895  0.98658579  0.32696945    -0.56880
C780        C  0.17411901  0.50672296  0.45714574     0.75750
O781        O  0.27052292  0.54033999  0.37753307    -0.58030
C782        C  0.17580863  0.50554523  0.29298719     0.75720
C783        C  0.22903412  0.58662607  0.37657822     0.78120
Cd784      Cd  0.21393210  0.52196256  0.37496127     1.37470
O785        O  0.16237639  0.00310102  0.41737367    -0.56870
O786        O  0.21839802  0.56829230  0.41059750    -0.55680
C787        C  0.27049830  0.51378007  0.37506315     0.78080
O788        O  0.23753601  0.57659227  0.34195623    -0.58050
O789        O  0.20375225  0.51473576  0.45885223    -0.56510
O790        O  0.20351113  0.52982523  0.29578666    -0.56500
O791        O  0.24312749  0.98856204  0.37352420    -0.55670
O792        O  0.16460255  0.62815049  0.42324382    -0.56880
C793        C  0.17509199  0.64661865  0.29122073     0.75750
O794        O  0.26581221  0.70077310  0.39012429    -0.58030
C795        C  0.17390605  0.64453273  0.45977303     0.75720
C796        C  0.22677303  0.61576200  0.37633664     0.78120
Cd797      Cd  0.21025366  0.66480417  0.37542875     1.37470
O798        O  0.16378793  0.65386804  0.32590225    -0.56870
O799        O  0.20727166  0.61776138  0.40340903    -0.55680
C800        C  0.26592813  0.72709124  0.38303028     0.78080
O801        O  0.24141904  0.63846287  0.34824757    -0.58050
O802        O  0.20379067  0.65235133  0.29463615    -0.56510
O803        O  0.19892095  0.67192790  0.45647039    -0.56500
O804        O  0.23916787  0.72547556  0.37326980    -0.55670
C805        C  0.40705660  0.50345929  0.24559823    -0.01550
C806        C  0.15464381  0.50127220  0.25156075    -0.01500
C807        C  0.15515582  0.62935624  0.24897358    -0.01550
C808        C  0.02926495  0.63324024  0.25133213    -0.01550
C809        C  0.02742190  0.87891864  0.24660627    -0.01550
C810        C  0.39753126  0.87105842  0.25880792    -0.01550
O811        O  0.39280152  0.52028548  0.17327357    -0.56880
C812        C  0.38299928  0.00005275  0.04247413     0.75750
O813        O  0.31954610  0.93087837  0.15945582    -0.58030
C814        C  0.38460766  0.00060443  0.20642554     0.75720
C815        C  0.28920842  0.99379585  0.12482602     0.78120
Cd816      Cd  0.34431848  0.98463775  0.12518186     1.37460
O817        O  0.39374658  0.50081285  0.08209850    -0.56870
O818        O  0.31652303  0.51899023  0.12745438    -0.55680
C819        C  0.32163891  0.91705211  0.12361416     0.78080
O820        O  0.28892676  0.96716642  0.12281575    -0.58050
O821        O  0.35445397  0.99541194  0.04070351    -0.56510
O822        O  0.35653968  0.97678365  0.20422449    -0.56500
O823        O  0.33147733  0.93386852  0.08780170    -0.55670
O824        O  0.15597053  0.49248861  0.16992160    -0.56880
C825        C  0.17057699  0.99818645  0.04233460     0.75750
O826        O  0.23307149  0.96633156  0.12666025    -0.58030
C827        C  0.17060302  0.49813867  0.20777671     0.75720
C828        C  0.14934830  0.91743605  0.12768084     0.78120
Cd829      Cd  0.19402785  0.98345044  0.12496927     1.37470
O830        O  0.18491807  0.51995946  0.07260056    -0.56870
O831        O  0.15861925  0.93407400  0.16387763    -0.55680
C832        C  0.25826587  0.99330948  0.12450205     0.78080
O833        O  0.16476344  0.92990177  0.09140832    -0.58050
O834        O  0.17010619  0.97188068  0.04983914    -0.56510
O835        O  0.19847106  0.00092675  0.20638193    -0.56500
O836        O  0.25470142  0.51809575  0.12184905    -0.55670
O837        O  0.18067267  0.64282189  0.08018151    -0.56880
C838        C  0.16986123  0.64962878  0.20666708     0.75750
O839        O  0.22877482  0.74593172  0.13316826    -0.58030
C840        C  0.17249552  0.65266792  0.04502425     0.75720
C841        C  0.14420414  0.70787922  0.12814188     0.78120
Cd842      Cd  0.19201867  0.69019634  0.12713045     1.37460
O843        O  0.15657641  0.64034034  0.16803297    -0.56870
O844        O  0.15514795  0.70351944  0.16513292    -0.55680
C845        C  0.25469555  0.74504720  0.12893416     0.78080
O846        O  0.15851191  0.70853726  0.09146676    -0.58050
O847        O  0.19462618  0.67728815  0.20801448    -0.56510
O848        O  0.17721897  0.68125352  0.04671664    -0.56500
O849        O  0.25261235  0.71748199  0.12367493    -0.55670
O850        O  0.01909589  0.64224062  0.17183512    -0.56880
C851        C  0.03285008  0.64973752  0.04572519     0.75750
O852        O  0.06745208  0.74739429  0.12194912    -0.58030
C853        C  0.03435689  0.65402315  0.20886320     0.75720
C854        C  0.11382091  0.70741300  0.12715390     0.78120
Cd855      Cd  0.04923652  0.69122820  0.12536615     1.37460
O856        O  0.01559567  0.64120806  0.08147747    -0.56870
O857        O  0.09813950  0.70370845  0.16351812    -0.55680
C858        C  0.04115984  0.74761010  0.12249912     0.78080
O859        O  0.10036397  0.70665309  0.08964806    -0.58050
O860        O  0.05660668  0.67794042  0.04652668    -0.56510
O861        O  0.05451415  0.68369253  0.20750059    -0.56500
O862        O  0.01587623  0.72035508  0.12406574    -0.55670
O863        O  0.38817580  0.86868943  0.17723909    -0.56880
C864        C  0.37783546  0.85694414  0.05096290     0.75750
O865        O  0.28346990  0.80140604  0.13271302    -0.58030
C866        C  0.37716703  0.85685636  0.21596575     0.75720
C867        C  0.31878235  0.88519157  0.12525634     0.78120
Cd868      Cd  0.33897394  0.83825821  0.13259451     1.37470
O869        O  0.38714605  0.87196972  0.08854352    -0.56870
O870        O  0.32606410  0.87410054  0.09080635    -0.55680
C871        C  0.28484415  0.77549976  0.12999627     0.78080
O872        O  0.31504602  0.87055665  0.16266710    -0.58050
O873        O  0.35253285  0.82967194  0.05272065    -0.56510
O874        O  0.34865510  0.83363365  0.21609384    -0.56500
O875        O  0.31258735  0.77778593  0.12840718    -0.55670
O876        O  0.03703242  0.87814195  0.07890198    -0.56880
C877        C  0.03114232  0.86249797  0.20351243     0.75750
O878        O  0.06917992  0.80408239  0.12115682    -0.58030
C879        C  0.03294116  0.86425879  0.04059483     0.75720
C880        C  0.11891212  0.88788208  0.12645283     0.78120
Cd881      Cd  0.05244818  0.84353927  0.12212914     1.37460
O882        O  0.03351749  0.87504846  0.16473219    -0.56870
O883        O  0.10237307  0.87703068  0.16225542    -0.55680
C884        C  0.04203936  0.77892992  0.12179898     0.78080
O885        O  0.10582991  0.87500691  0.08892647    -0.58050
O886        O  0.03454770  0.83757541  0.20410715    -0.56510
O887        O  0.03676071  0.83957542  0.03982341    -0.56500
O888        O  0.01739774  0.78279585  0.12214444    -0.55670
C889        C  0.47058314  0.86070690  0.21695949    -0.04840
C890        C  0.49535607  0.88051406  0.24772756     0.01080
C891        C  0.48643203  0.89479830  0.28435513    -0.07490
C892        C  0.45510207  0.89120801  0.28529805    -0.04860
C893        C  0.43069575  0.87163616  0.25419274     0.01070
C894        C  0.43825157  0.85288682  0.22281281    -0.07400
C895        C  0.41388509  0.82130995  0.19983251     0.62980
H896        H  0.47532113  0.84776258  0.19030860     0.13680
H897        H  0.44915291  0.90334374  0.31207108     0.13690
C898        C  0.00723816  0.91256680  0.32541907     0.63220
F899        F  0.42587076  0.79988816  0.19734017    -0.21950
F900        F  0.40770822  0.82710537  0.15573523    -0.19280
F901        F  0.38563930  0.80547085  0.22411984    -0.18960
F902        F  0.00670374  0.94124213  0.33190202    -0.19010
F903        F  0.03897886  0.92062289  0.32296512    -0.19330
F904        F  0.49453093  0.89285745  0.36298028    -0.22000
C905        C  0.12112175  0.65665701  0.26096615    -0.04840
C906        C  0.12107411  0.62730902  0.25215955     0.01080
C907        C  0.09026373  0.59983576  0.24570809    -0.07490
C908        C  0.06251351  0.60211501  0.25754999    -0.04860
C909        C  0.06193905  0.63181227  0.25831538     0.01070
C910        C  0.09324404  0.65994675  0.26486087    -0.07400
C911        C  0.10142175  0.69418979  0.28020725     0.62980
H912        H  0.14423986  0.67825380  0.26479459     0.13680
H913        H  0.04098330  0.57964068  0.26334082     0.13690
C914        C  0.08400022  0.56979292  0.21866383     0.63220
F915        F  0.11713921  0.70052446  0.32187185    -0.21950
F916        F  0.07626321  0.70030270  0.28595848    -0.19280
F917        F  0.12226332  0.71633942  0.24900053    -0.18960
F918        F  0.07597055  0.54414034  0.24771561    -0.19010
F919        F  0.10923681  0.57438209  0.19074542    -0.19330
F920        F  0.05857725  0.56155474  0.18948056    -0.22000
C921        C  0.17080821  0.55728866  0.21817784    -0.04840
C922        C  0.15221602  0.53344796  0.25084566     0.01080
C923        C  0.13698221  0.54319467  0.28540750    -0.07490
C924        C  0.13884957  0.57393161  0.28237045    -0.04860
C925        C  0.15622238  0.59673255  0.24813646     0.01070
C926        C  0.17610809  0.58913949  0.21920931    -0.07400
C927        C  0.20576187  0.61361110  0.19273507     0.62980
H928        H  0.18397841  0.55223970  0.19246221     0.13680
H929        H  0.12629490  0.58043625  0.30776984     0.13690
C930        C  0.11848503  0.52367063  0.32702850     0.63220
F931        F  0.22715244  0.60216415  0.18444895    -0.21950
F932        F  0.22297199  0.64184879  0.21705929    -0.19280
F933        F  0.19687422  0.61978020  0.15085064    -0.18960
F934        F  0.11619992  0.49378429  0.33064500    -0.19010
F935        F  0.08751269  0.01913654  0.32586643    -0.19330
F936        F  0.13338527  0.54089344  0.36623526    -0.22000
C937        C  0.08735379  0.91076395  0.25805133    -0.04840
C938        C  0.05931485  0.91208936  0.24641493     0.01080
C939        C  0.06372038  0.94259790  0.23063020    -0.07490
C940        C  0.09420683  0.97026530  0.23622946    -0.04860
C941        C  0.12180211  0.96918893  0.25186239     0.01070
C942        C  0.11824121  0.93765996  0.25968386    -0.07400
C943        C  0.14458625  0.92901105  0.27097896     0.62980
H944        H  0.08520700  0.88733903  0.26464372     0.13680
H945        H  0.09672565  0.99323892  0.22610867     0.13690
C946        C  0.03837518  0.94749945  0.20528261     0.63220
F947        F  0.14248883  0.92114720  0.31680938    -0.21950
F948        F  0.17539831  0.95263474  0.26171141    -0.19280
F949        F  0.13989523  0.90221138  0.24586224    -0.18960
F950        F  0.01848569  0.95141489  0.23602268    -0.19010
F951        F  0.02040742  0.92220352  0.17599729    -0.19330
F952        F  0.05249375  0.97491564  0.17836098    -0.22000
C953        C  0.43853042  0.56511098  0.24876932    -0.04840
C954        C  0.44047294  0.53654836  0.23982761     0.01080
C955        C  0.47045853  0.54308943  0.21821185    -0.07490
C956        C  0.49687297  0.57499336  0.21875072    -0.04860
C957        C  0.49662788  0.60067928  0.24218906     0.01070
C958        C  0.46474771  0.59669972  0.24536045    -0.07400
C959        C  0.45448549  0.62166759  0.23221024     0.62980
H960        H  0.41501274  0.56298316  0.25371971     0.13680
H961        H  0.01817608  0.58066368  0.19922404     0.13690
C962        C  0.47531854  0.51927403  0.18976446     0.63220
F963        F  0.43686999  0.61141555  0.19212937    -0.21950
F964        F  0.47900927  0.65233695  0.22422452    -0.19280
F965        F  0.43463363  0.62342864  0.26527363    -0.18960
F966        F  0.45052203  0.50508037  0.15974307    -0.19010
F967        F  0.47827577  0.49749709  0.21763880    -0.19330
F968        F  0.50240051  0.53340991  0.16257319    -0.22000
C969        C  0.38513613  0.94633783  0.28290233    -0.04840
C970        C  0.40601990  0.96912176  0.24999058     0.01080
C971        C  0.41765529  0.95450491  0.21744053    -0.07490
C972        C  0.42412892  0.93024305  0.23411011    -0.04860
C973        C  0.40107348  0.90579247  0.26246077     0.01070
C974        C  0.37813485  0.91366606  0.28298419    -0.07400
C975        C  0.34448276  0.89009439  0.30036410     0.62980
H976        H  0.36993157  0.95184861  0.30439122     0.13680
H977        H  0.43950252  0.92431098  0.21346549     0.13690
C978        C  0.40289503  0.94437157  0.16989872     0.63220
F979        F  0.34435833  0.89062775  0.34756989    -0.21950
F980        F  0.33283099  0.85889081  0.28518967    -0.19280
F981        F  0.32280870  0.89956613  0.28501344    -0.18960
F982        F  0.42308521  0.93889053  0.14152377    -0.19010
F983        F  0.39582447  0.46569067  0.14840569    -0.19330
F984        F  0.37460220  0.91604185  0.17412545    -0.22000
C985        C  0.43726716  0.85696655  0.03449873    -0.04840
C986        C  0.43060200  0.87657508  0.00533953     0.01080
C987        C  0.45453158  0.89458944  0.47136953    -0.07490
C988        C  0.48365295  0.89306563  0.47069453    -0.04860
C989        C  0.49123690  0.87549280  0.00245635     0.01070
C990        C  0.46523859  0.85390485  0.03183563    -0.07400
C991        C  0.46338086  0.82485500  0.05754514     0.62980
H992        H  0.41925582  0.84194137  0.05884202     0.13680
H993        H  0.50199008  0.90725866  0.44596560     0.13690
C994        C  0.45250836  0.91857273  0.43841289     0.63220
F995        F  0.43204536  0.80245327  0.06871052    -0.21950
F996        F  0.48016733  0.83449830  0.09816576    -0.19280
F997        F  0.47445884  0.80825962  0.03089370    -0.18960
F998        F  0.46382959  0.94824973  0.95909556    -0.19010
F999        F  0.42215974  0.90858261  0.42190361    -0.19330
F1000       F  0.47142894  0.92348136  0.40079740    -0.22000
C1001       C  0.10026492  0.61554346  0.03922031    -0.04840
C1002       C  0.12168069  0.62905235  0.50200606     0.01080
C1003       C  0.11158024  0.64415858  0.46808535    -0.07490
C1004       C  0.07900372  0.63591581  0.46553679    -0.04860
C1005       C  0.05740266  0.62263450  0.50251035     0.01070
C1006       C  0.06858470  0.61126095  0.04011020    -0.07400
C1007       C  0.04959723  0.59499466  0.08311801     0.62980
H1008       H  0.10871918  0.60843276  0.06908597     0.13680
H1009       H  0.07219829  0.64434600  0.43570561     0.13690
C1010       C  0.13413803  0.67515676  0.44239901     0.63220
F1011       F  0.05129021  0.56706382  0.09073809    -0.21950
F1012       F  0.01755160  0.58620602  0.08115884    -0.19280
F1013       F  0.06316558  0.61552804  0.12008874    -0.18960
F1014       F  0.14391591  0.66807818  0.40166551    -0.19010
F1015       F  0.16031727  0.69521372  0.46879501    -0.19330
F1016       F  0.11914122  0.69314320  0.43194751    -0.22000
C1017       C  0.12891221  0.56875953  0.02236873    -0.04840
C1018       C  0.15674868  0.59809677  0.01078832     0.01080
C1019       C  0.18588204  0.59564109  0.50715252    -0.07490
C1020       C  0.18309334  0.56474756  0.50134189    -0.04860
C1021       C  0.15397201  0.53571923  0.00748982     0.01070
C1022       C  0.13051372  0.54029567  0.03143196    -0.07400
C1023       C  0.11938022  0.52591715  0.07877824     0.62980
H1024       H  0.10637893  0.56777022  0.02973629     0.13680
H1025       H  0.20487220  0.56337706  0.49575673     0.13690
C1026       C  0.22070489  0.62260597  0.51310724     0.63220
F1027       F  0.14403257  0.54290107  0.10949538    -0.21950
F1028       F  0.11144852  0.49382666  0.08087970    -0.19280
F1029       F  0.09310979  0.52882194  0.09288167    -0.18960
F1030       F  0.22505795  0.65330579  0.01704921    -0.19010
F1031       F  0.23940631  0.62253275  0.47696438    -0.19330
F1032       F  0.23286958  0.61644817  0.55242262    -0.22000
C1033       C  0.09099526  0.97168548  0.49351921    -0.04840
C1034       C  0.12028341  0.97060364  0.99237284     0.01080
C1035       C  0.11645572  0.93874862  0.98442339    -0.07490
C1036       C  0.08536878  0.91169649  0.98550118    -0.04860
C1037       C  0.05662766  0.91267434  0.99456061     0.01070
C1038       C  0.06051751  0.94429962  0.50193195    -0.07400
C1039       C  0.03567452  0.95179664  0.52339262     0.62980
H1040       H  0.09128488  0.99435828  0.49078362     0.13680
H1041       H  0.08355676  0.88817810  0.98039789     0.13690
C1042       C  0.14201436  0.92902866  0.97193473     0.63220
F1043       F  0.05040904  0.97924954  0.05009505    -0.21950
F1044       F  0.01490856  0.92779453  0.05228646    -0.19280
F1045       F  0.01926455  0.95788612  0.48958633    -0.18960
F1046       F  0.14055677  0.90644098  0.00300083    -0.19010
F1047       F  0.17333590  0.95309128  0.47062872    -0.19330
F1048       F  0.13491743  0.91470888  0.42905485    -0.22000
C1049       C  0.49202040  0.56985355  0.97771575    -0.04840
C1050       C  0.49430742  0.59563382  0.00495589     0.01080
C1051       C  0.46450138  0.59195505  0.52220212    -0.07490
C1052       C  0.43809456  0.56076881  0.52482107    -0.04860
C1053       C  0.43621134  0.53405770  0.00027445     0.01070
C1054       C  0.46290122  0.54087863  0.97080071    -0.07400
C1055       C  0.46283368  0.52089531  0.92962014     0.62980
H1056       H  0.51281031  0.57350857  0.95795225     0.13680
H1057       H  0.41697546  0.55860253  0.54198851     0.13690
C1058       C  0.45646037  0.61874131  0.53383729     0.63220
F1059       F  0.46642005  0.53855537  0.89042603    -0.21950
F1060       F  0.43541448  0.99169856  0.42471728    -0.19280
F1061       F  0.48854358  0.51499232  0.93214066    -0.18960
F1062       F  0.42810882  0.61236421  0.51218842    -0.19010
F1063       F  0.47909683  0.64900565  0.01975972    -0.19330
F1064       F  0.45182644  0.61925975  0.08050973    -0.22000
C1065       C  0.37501985  0.94219063  0.48928086    -0.04840
C1066       C  0.40391043  0.96982481  0.50239690     0.01080
C1067       C  0.42685175  0.96395585  0.02658219    -0.07490
C1068       C  0.42191522  0.93207288  0.02774126    -0.04860
C1069       C  0.39577398  0.90557843  0.50634566     0.01070
C1070       C  0.36963180  0.91046033  0.49268308    -0.07400
C1071       C  0.33491273  0.88459567  0.48334775     0.62980
H1072       H  0.35483558  0.94517294  0.47877212     0.13680
H1073       H  0.43972615  0.92783849  0.04451462     0.13690
C1074       C  0.45733061  0.98951479  0.05045083     0.63220
F1075       F  0.31410715  0.89203490  0.50704627    -0.21950
F1076       F  0.32763047  0.85398584  0.99641955    -0.19280
F1077       F  0.32839858  0.88426266  0.43728876    -0.18960
F1078       F  0.45263219  0.01254402  0.07259625    -0.19010
F1079       F  0.48194638  0.50409253  0.51936795    -0.19330
F1080       F  0.46793461  0.97596913  0.08331898    -0.22000
C1081       C  0.40311253  0.00234796  0.50013985    -0.01550
C1082       C  0.15395073  0.50254892  0.50010490    -0.01550
C1083       C  0.15590660  0.63089466  0.50432778    -0.01550
C1084       C  0.02692816  0.62776729  0.50423868    -0.01550
C1085       C  0.02552643  0.87815452  0.49846770    -0.01550
C1086       C  0.39571596  0.87265799  0.50661603    -0.01550
O1087       O  0.04316292  0.86728054  0.82256309    -0.56880
C1088       C  0.02312223  0.85820974  0.95545166     0.75750
O1089       O  0.45602100  0.80175193  0.83845360    -0.58030
C1090       C  0.02418798  0.85782526  0.78849079     0.75720
C1091       C  0.01690746  0.76295170  0.87508157     0.78120
Cd1092     Cd  0.00909100  0.81975047  0.87196135     1.37470
O1093       O  0.03895369  0.87032452  0.91896641    -0.56870
O1094       O  0.04213541  0.79026685  0.87395744    -0.55680
C1095       C  0.44368183  0.80301554  0.87624479     0.78080
O1096       O  0.49058929  0.76310402  0.87374341    -0.58050
O1097       O  0.00350130  0.82838361  0.95351346    -0.56510
O1098       O  0.50033857  0.82981729  0.79197229    -0.56500
O1099       O  0.46096958  0.80983542  0.91150735    -0.55670
O1100       O  0.03576733  0.64532050  0.83357426    -0.56880
C1101       C  0.02396743  0.64447700  0.96115735     0.75750
O1102       O  0.48947764  0.70655299  0.88282387    -0.58030
C1103       C  0.02412244  0.64750635  0.79555114     0.75720
C1104       C  0.44159022  0.62013772  0.87962026     0.78120
Cd1105     Cd  0.00694860  0.66723074  0.88023223     1.37460
O1106       O  0.01610653  0.62936225  0.92352921    -0.56870
O1107       O  0.45845048  0.63060447  0.84426606    -0.55680
C1108       C  0.01628498  0.73173910  0.87788799     0.78080
O1109       O  0.45362193  0.63472232  0.91677428    -0.58050
O1110       O  0.02788389  0.67293744  0.96040886    -0.56510
O1111       O  0.00824328  0.66241650  0.79693982    -0.56500
O1112       O  0.04095559  0.72802659  0.87516668    -0.55670
O1113       O  0.36874730  0.85902449  0.93112645    -0.56880
C1114       C  0.38227690  0.85113914  0.80157116     0.75750
O1115       O  0.39566490  0.79693326  0.84368714    -0.58030
C1116       C  0.37913240  0.85068610  0.96560152     0.75720
C1117       C  0.29656580  0.75725456  0.88474810     0.78120
Cd1118     Cd  0.36010365  0.81243343  0.88338737     1.37470
O1119       O  0.38389483  0.86388497  0.84040586    -0.56870
O1120       O  0.29946593  0.78491201  0.87776222    -0.55680
C1121       C  0.41226548  0.80046543  0.87900846     0.78080
O1122       O  0.32207953  0.75614486  0.89224810    -0.58050
O1123       O  0.36851081  0.82066749  0.80077825    -0.56510
O1124       O  0.37698228  0.82304409  0.96324796    -0.56500
O1125       O  0.40205491  0.80506147  0.91665608    -0.55670
O1126       O  0.40565104  0.01278009  0.82851457    -0.56880
C1127       C  0.38634675  0.50581176  0.95732170     0.75750
O1128       O  0.39758245  0.57514454  0.91337874    -0.58030
C1129       C  0.39188527  0.50834735  0.79008800     0.75720
C1130       C  0.30163940  0.51413887  0.87371697     0.78120
Cd1131     Cd  0.36660179  0.52342176  0.87364589     1.37470
O1132       O  0.37831749  0.98720902  0.92257455    -0.56870
O1133       O  0.30524722  0.98936493  0.87675954    -0.55680
C1134       C  0.41198547  0.58975361  0.87758225     0.78080
O1135       O  0.32696398  0.54087176  0.86971961    -0.58050
O1136       O  0.38153657  0.52966404  0.95400965    -0.56510
O1137       O  0.36528260  0.50852623  0.79089125    -0.56500
O1138       O  0.40226624  0.57491169  0.83998807    -0.55670
O1139       O  0.16696929  0.98658507  0.82696869    -0.56880
C1140       C  0.17411720  0.50672075  0.95714576     0.75750
O1141       O  0.27052178  0.54033910  0.87753720    -0.58030
C1142       C  0.17580891  0.50554443  0.79298638     0.75720
C1143       C  0.22903135  0.58662378  0.87657836     0.78120
Cd1144     Cd  0.21393085  0.52196086  0.87496164     1.37470
O1145       O  0.16237531  0.00309749  0.91737410    -0.56870
O1146       O  0.21839074  0.56828827  0.91059514    -0.55680
C1147       C  0.27049765  0.51377949  0.87506474     0.78080
O1148       O  0.23753830  0.57659201  0.84195936    -0.58050
O1149       O  0.20375062  0.51473427  0.95885274    -0.56510
O1150       O  0.20351126  0.52982455  0.79578665    -0.56500
O1151       O  0.24312766  0.98856234  0.87352307    -0.55670
O1152       O  0.16460112  0.62814976  0.92324237    -0.56880
C1153       C  0.17509212  0.64661742  0.79121876     0.75750
O1154       O  0.26581081  0.70077133  0.89012077    -0.58030
C1155       C  0.17390472  0.64453169  0.95977178     0.75720
C1156       C  0.22677027  0.61575964  0.87633584     0.78120
Cd1157     Cd  0.21025230  0.66480258  0.87542694     1.37470
O1158       O  0.16378799  0.65386779  0.82589930    -0.56870
O1159       O  0.20726606  0.61775758  0.90340411    -0.55680
C1160       C  0.26592714  0.72708913  0.88302154     0.78080
O1161       O  0.24141966  0.63846219  0.84825039    -0.58050
O1162       O  0.20379022  0.65234856  0.79463556    -0.56510
O1163       O  0.19891997  0.67192669  0.95646940    -0.56500
O1164       O  0.23916690  0.72547339  0.87326075    -0.55670
C1165       C  0.40705752  0.50346012  0.74559875    -0.01550
C1166       C  0.15464450  0.50127144  0.75155954    -0.01500
C1167       C  0.15515674  0.62935587  0.74897089    -0.01550
C1168       C  0.02926607  0.63324028  0.75133147    -0.01550
C1169       C  0.02742162  0.87891752  0.74660950    -0.01550
C1170       C  0.39754356  0.87106576  0.75880958    -0.01550
O1171       O  0.39280305  0.52028666  0.67327401    -0.56880
C1172       C  0.38299621  0.00005378  0.54247989     0.75750
O1173       O  0.31953626  0.93087014  0.65944649    -0.58030
C1174       C  0.38461150  0.00060154  0.70642873     0.75720
C1175       C  0.28920821  0.99379468  0.62483449     0.78120
Cd1176     Cd  0.34431706  0.98463484  0.62518745     1.37460
O1177       O  0.39374842  0.50081352  0.58209855    -0.56870
O1178       O  0.31652473  0.51899131  0.62745539    -0.55680
C1179       C  0.32163801  0.91704922  0.62360467     0.78080
O1180       O  0.28892568  0.96716467  0.62283164    -0.58050
O1181       O  0.35444946  0.99540875  0.54070757    -0.56510
O1182       O  0.35654416  0.97677950  0.70422840    -0.56500
O1183       O  0.33148432  0.93387077  0.58779782    -0.55670
O1184       O  0.15597143  0.49248742  0.66992069    -0.56880
C1185       C  0.17057868  0.99818752  0.54233414     0.75750
O1186       O  0.23307139  0.96633149  0.62666740    -0.58030
C1187       C  0.17060396  0.49813794  0.70777583     0.75720
C1188       C  0.14934850  0.91743672  0.62767997     0.78120
Cd1189     Cd  0.19402849  0.98345077  0.62496945     1.37470
O1190       O  0.18491558  0.51995889  0.57260475    -0.56870
O1191       O  0.15861948  0.93407453  0.66387682    -0.55680
C1192       C  0.25826606  0.99330907  0.62450789     0.78080
O1193       O  0.16476372  0.92990240  0.59140751    -0.58050
O1194       O  0.17011288  0.97188362  0.54983465    -0.56510
O1195       O  0.19847141  0.00092784  0.70638159    -0.56500
O1196       O  0.25470293  0.51809647  0.62184991    -0.55670
O1197       O  0.18067608  0.64282434  0.58018200    -0.56880
C1198       C  0.16986351  0.64962941  0.70666546     0.75750
O1199       O  0.22878210  0.74593518  0.63317150    -0.58030
C1200       C  0.17249781  0.65266979  0.54502525     0.75720
C1201       C  0.14420874  0.70788242  0.62814262     0.78120
Cd1202     Cd  0.19202343  0.69019943  0.62713063     1.37460
O1203       O  0.15657977  0.64034212  0.66803056    -0.56870
O1204       O  0.15515266  0.70352254  0.66513350    -0.55680
C1205       C  0.25470246  0.74505031  0.62893357     0.78080
O1206       O  0.15851701  0.70854143  0.59146753    -0.58050
O1207       O  0.19462861  0.67728867  0.70801457    -0.56510
O1208       O  0.17722125  0.68125542  0.54671749    -0.56500
O1209       O  0.25261809  0.71748482  0.62367121    -0.55670
O1210       O  0.01909880  0.64224140  0.67183410    -0.56880
C1211       C  0.03285231  0.64973926  0.54572591     0.75750
O1212       O  0.06745488  0.74739619  0.62195192    -0.58030
C1213       C  0.03435853  0.65402371  0.70886305     0.75720
C1214       C  0.11382491  0.70741520  0.62715472     0.78120
Cd1215     Cd  0.04923985  0.69122990  0.62536691     1.37460
O1216       O  0.01559814  0.64121002  0.58147839    -0.56870
O1217       O  0.09814289  0.70370915  0.66351874    -0.55680
C1218       C  0.04116237  0.74761149  0.62250031     0.78080
O1219       O  0.10036812  0.70665599  0.58964900    -0.58050
O1220       O  0.05660919  0.67794201  0.54652717    -0.56510
O1221       O  0.05451514  0.68369335  0.70750177    -0.56500
O1222       O  0.01587904  0.72035621  0.62406541    -0.55670
O1223       O  0.38818118  0.86871077  0.67724258    -0.56880
C1224       C  0.37784794  0.85695149  0.55096345     0.75750
O1225       O  0.28347820  0.80140932  0.63271710    -0.58030
C1226       C  0.37717865  0.85686597  0.71596594     0.75720
C1227       C  0.31878408  0.88518959  0.62524351     0.78120
Cd1228     Cd  0.33898279  0.83826233  0.63259208     1.37470
O1229       O  0.38715589  0.87197476  0.58854598    -0.56870
O1230       O  0.32607958  0.87410688  0.59079775    -0.55680
C1231       C  0.28485182  0.77550287  0.62999487     0.78080
O1232       O  0.31503671  0.87054796  0.66265095    -0.58050
O1233       O  0.35254589  0.82967850  0.55271782    -0.56510
O1234       O  0.34867189  0.83363334  0.71608966    -0.56500
O1235       O  0.31259498  0.77778905  0.62839936    -0.55670
O1236       O  0.03703188  0.87814206  0.57890204    -0.56880
C1237       C  0.03114274  0.86249784  0.70351480     0.75750
O1238       O  0.06918146  0.80408385  0.62115875    -0.58030
C1239       C  0.03294145  0.86425942  0.54059457     0.75720
C1240       C  0.11891228  0.88788293  0.62645216     0.78120
Cd1241     Cd  0.05244848  0.84353993  0.62212961     1.37460
O1242       O  0.03351700  0.87504828  0.66473474    -0.56870
O1243       O  0.10237332  0.87703189  0.66225488    -0.55680
C1244       C  0.04204119  0.77893101  0.62179991     0.78080
O1245       O  0.10582997  0.87500753  0.58892597    -0.58050
O1246       O  0.03454911  0.83757586  0.70410859    -0.56510
O1247       O  0.03676180  0.83957653  0.53982303    -0.56500
O1248       O  0.01739918  0.78279631  0.62214404    -0.55670
C1249       C  0.47059840  0.86072219  0.71695298    -0.04840
C1250       C  0.49537047  0.88052505  0.74772474     0.01080
C1251       C  0.48644689  0.89480668  0.78435687    -0.07490
C1252       C  0.45511561  0.89121431  0.78530259    -0.04860
C1253       C  0.43070954  0.87164572  0.75419335     0.01070
C1254       C  0.43826681  0.85290154  0.72280618    -0.07400
C1255       C  0.41389994  0.82132752  0.69982009     0.62980
H1256       H  0.47533741  0.84778240  0.69029675     0.13680
H1257       H  0.44916538  0.90334711  0.81207791     0.13690
C1258       C  0.00723537  0.91256667  0.82542077     0.63220
F1259       F  0.42588996  0.79991024  0.69729791    -0.21950
F1260       F  0.40771004  0.82712950  0.65573355    -0.19280
F1261       F  0.38566120  0.80548032  0.72412168    -0.18960
F1262       F  0.00670539  0.94124506  0.83189304    -0.19010
F1263       F  0.03897473  0.92061652  0.82297364    -0.19330
F1264       F  0.49456862  0.89285157  0.86297656    -0.22000
C1265       C  0.12112289  0.65665703  0.76096327    -0.04840
C1266       C  0.12107516  0.62730904  0.75215616     0.01080
C1267       C  0.09026476  0.59983584  0.74570510    -0.07490
C1268       C  0.06251463  0.60211495  0.75754814    -0.04860
C1269       C  0.06194014  0.63181219  0.75831457     0.01070
C1270       C  0.09324519  0.65994664  0.76485972    -0.07400
C1271       C  0.10142297  0.69418939  0.78020770     0.62980
H1272       H  0.14424104  0.67825380  0.76479145     0.13680
H1273       H  0.04098450  0.57964056  0.76333897     0.13690
C1274       C  0.08400110  0.56979330  0.71866002     0.63220
F1275       F  0.11714070  0.70052329  0.82187201    -0.21950
F1276       F  0.07626442  0.70030213  0.78596029    -0.19280
F1277       F  0.12226433  0.71633966  0.74900147    -0.18960
F1278       F  0.07597048  0.54414011  0.74771104    -0.19010
F1279       F  0.10923791  0.57438236  0.69074217    -0.19330
F1280       F  0.05857875  0.56155625  0.68947607    -0.22000
C1281       C  0.17080913  0.55728794  0.71817626    -0.04840
C1282       C  0.15221659  0.53344719  0.75084387     0.01080
C1283       C  0.13698229  0.54319389  0.78540496    -0.07490
C1284       C  0.13884952  0.57393078  0.78236732    -0.04860
C1285       C  0.15622288  0.59673187  0.74813368     0.01070
C1286       C  0.17610896  0.58913880  0.71920737    -0.07400
C1287       C  0.20576305  0.61361042  0.69273373     0.62980
H1288       H  0.18397962  0.55223898  0.69246112     0.13680
H1289       H  0.12629450  0.58043536  0.80776622     0.13690
C1290       C  0.11848468  0.52366987  0.82702573     0.63220
F1291       F  0.22715352  0.60216332  0.68444777    -0.21950
F1292       F  0.22297313  0.64184790  0.71705842    -0.19280
F1293       F  0.19687583  0.61977988  0.65084924    -0.18960
F1294       F  0.11620011  0.49378381  0.83064309    -0.19010
F1295       F  0.08751353  0.01913655  0.82586777    -0.19330
F1296       F  0.13338412  0.54089297  0.86623266    -0.22000
C1297       C  0.08735336  0.91076356  0.75805530    -0.04840
C1298       C  0.05931411  0.91208870  0.74641967     0.01080
C1299       C  0.06371940  0.94259697  0.73063410    -0.07490
C1300       C  0.09420605  0.97026447  0.73623172    -0.04860
C1301       C  0.12180175  0.96918832  0.75186325     0.01070
C1302       C  0.11824093  0.93765949  0.75968550    -0.07400
C1303       C  0.14458630  0.92901059  0.77097839     0.62980
H1304       H  0.08520687  0.88733878  0.76464782     0.13680
H1305       H  0.09672469  0.99323793  0.72611048     0.13690
C1306       C  0.03837391  0.94749803  0.70528635     0.63220
F1307       F  0.14248998  0.92114644  0.81680858    -0.21950
F1308       F  0.17539816  0.95263438  0.76170987    -0.19280
F1309       F  0.13989469  0.90221109  0.74586075    -0.18960
F1310       F  0.01848453  0.95141375  0.73602620    -0.19010
F1311       F  0.02040595  0.92220171  0.67600173    -0.19330
F1312       F  0.05249218  0.97491387  0.67836399    -0.22000
C1313       C  0.43853126  0.56511194  0.74877122    -0.04840
C1314       C  0.44047382  0.53654939  0.73982873     0.01080
C1315       C  0.47045917  0.54309081  0.71821189    -0.07490
C1316       C  0.49687371  0.57499467  0.71875149    -0.04860
C1317       C  0.49662859  0.60068041  0.74219032     0.01070
C1318       C  0.46474841  0.59670073  0.74536190    -0.07400
C1319       C  0.45448602  0.62166824  0.73221031     0.62980
H1320       H  0.41501358  0.56298406  0.75372183     0.13680
H1321       H  0.01817668  0.58066341  0.69922299     0.13690
C1322       C  0.47531824  0.51927618  0.68976137     0.63220
F1323       F  0.43687074  0.61141556  0.69212932    -0.21950
F1324       F  0.47900974  0.65233756  0.72422404    -0.19280
F1325       F  0.43463392  0.62342959  0.76527303    -0.18960
F1326       F  0.45052073  0.50508367  0.65974141    -0.19010
F1327       F  0.47827600  0.49749823  0.71763279    -0.19330
F1328       F  0.50239949  0.53341279  0.66256861    -0.22000
C1329       C  0.38514407  0.94634090  0.78291254    -0.04840
C1330       C  0.40602767  0.96912508  0.75000076     0.01080
C1331       C  0.41766200  0.95450947  0.71744848    -0.07490
C1332       C  0.42414077  0.93025200  0.73412134    -0.04860
C1333       C  0.40108484  0.90579875  0.76246848     0.01070
C1334       C  0.37814458  0.91366965  0.78299315    -0.07400
C1335       C  0.34449208  0.89009513  0.80036858     0.62980
H1336       H  0.36993900  0.95185101  0.80440141     0.13680
H1337       H  0.43951891  0.92432454  0.71347968     0.13690
C1338       C  0.40287605  0.94435784  0.66992380     0.63220
F1339       F  0.34436619  0.89062017  0.84757461    -0.21950
F1340       F  0.33284121  0.85889427  0.78518204    -0.19280
F1341       F  0.32281804  0.89956899  0.78502492    -0.18960
F1342       F  0.42303115  0.93882644  0.64154426    -0.19010
F1343       F  0.39582418  0.46569091  0.64840670    -0.19330
F1344       F  0.37456511  0.91605179  0.67420020    -0.22000
C1345       C  0.43728467  0.85698346  0.53451233    -0.04840
C1346       C  0.43062108  0.87659219  0.50535005     0.01080
C1347       C  0.45451172  0.89457604  0.97136157    -0.07490
C1348       C  0.48364321  0.89307107  0.97070161    -0.04860
C1349       C  0.49124726  0.87549388  0.50245729     0.01070
C1350       C  0.46525242  0.85391556  0.53184734    -0.07400
C1351       C  0.46339195  0.82486551  0.55755921     0.62980
H1352       H  0.41927494  0.84196234  0.55885999     0.13680
H1353       H  0.50198042  0.90727434  0.94597756     0.13690
C1354       C  0.45248270  0.91855002  0.93839316     0.63220
F1355       F  0.43205598  0.80246774  0.56872895    -0.21950
F1356       F  0.48018137  0.83450938  0.59817735    -0.19280
F1357       F  0.47446518  0.80826591  0.53090761    -0.18960
F1358       F  0.46376269  0.94824125  0.45917016    -0.19010
F1359       F  0.42211989  0.90861036  0.92198448    -0.19330
F1360       F  0.47131840  0.92336158  0.90070980    -0.22000
C1361       C  0.10026649  0.61554470  0.53922154    -0.04840
C1362       C  0.12167895  0.62905083  0.00200454     0.01080
C1363       C  0.11157840  0.64415691  0.96808377    -0.07490
C1364       C  0.07900188  0.63591421  0.96553556    -0.04860
C1365       C  0.05740099  0.62263313  0.00250940     0.01070
C1366       C  0.06858624  0.61126214  0.54011117    -0.07400
C1367       C  0.04959854  0.59499540  0.58311861     0.62980
H1368       H  0.10872059  0.60843369  0.56908707     0.13680
H1369       H  0.07219637  0.64434422  0.93570430     0.13690
C1370       C  0.13413610  0.67515492  0.94239703     0.63220
F1371       F  0.05129075  0.56706401  0.59073727    -0.21950
F1372       F  0.01755311  0.58620758  0.58115990    -0.19280
F1373       F  0.06316728  0.61552802  0.62008999    -0.18960
F1374       F  0.14391363  0.66807609  0.90166338    -0.19010
F1375       F  0.16031554  0.69521194  0.96879268    -0.19330
F1376       F  0.11913931  0.69314142  0.93194569    -0.22000
C1377       C  0.12891368  0.56876080  0.52236906    -0.04840
C1378       C  0.15675039  0.59809818  0.51078982     0.01080
C1379       C  0.18588027  0.59563968  0.00715046    -0.07490
C1380       C  0.18309151  0.56474611  0.00133976    -0.04860
C1381       C  0.15397375  0.53572066  0.50749086     0.01070
C1382       C  0.13051494  0.54029678  0.53143210    -0.07400
C1383       C  0.11938066  0.52591792  0.57877804     0.62980
H1384       H  0.10638029  0.56777144  0.52973575     0.13680
H1385       H  0.20487036  0.56337568  0.99575421     0.13690
C1386       C  0.22070315  0.62260465  0.01310431     0.63220
F1387       F  0.14403228  0.54290202  0.60949615    -0.21950
F1388       F  0.11144948  0.49382757  0.58087953    -0.19280
F1389       F  0.09310967  0.52882211  0.59288026    -0.18960
F1390       F  0.22505998  0.65330739  0.51704877    -0.19010
F1391       F  0.23940356  0.62253277  0.97695923    -0.19330
F1392       F  0.23286920  0.61644590  0.05241753    -0.22000
C1393       C  0.09099435  0.97168504  0.99351662    -0.04840
C1394       C  0.12028446  0.97060434  0.49237341     0.01080
C1395       C  0.11645659  0.93874925  0.48442313    -0.07490
C1396       C  0.08536955  0.91169707  0.48550115    -0.04860
C1397       C  0.05662846  0.91267489  0.49456122     0.01070
C1398       C  0.06051633  0.94429937  0.00192877    -0.07400
C1399       C  0.03567270  0.95179706  0.02338631     0.62980
H1400       H  0.09128452  0.99435810  0.99077976     0.13680
H1401       H  0.08355740  0.88817868  0.48039723     0.13690
C1402       C  0.14201486  0.92902907  0.47193307     0.63220
F1403       F  0.05041133  0.97924698  0.55010538    -0.21950
F1404       F  0.01490921  0.92779238  0.55228953    -0.19280
F1405       F  0.01926136  0.95788332  0.98957810    -0.18960
F1406       F  0.14055840  0.90644220  0.50299974    -0.19010
F1407       F  0.17333552  0.95309094  0.97063312    -0.19330
F1408       F  0.13491840  0.91470956  0.92905579    -0.22000
C1409       C  0.49202193  0.56985435  0.47771575    -0.04840
C1410       C  0.49430923  0.59563443  0.50495666     0.01080
C1411       C  0.46449950  0.59195432  0.02220122    -0.07490
C1412       C  0.43809279  0.56076802  0.02482044    -0.04860
C1413       C  0.43621286  0.53405865  0.50027432     0.01070
C1414       C  0.46290254  0.54087975  0.47080013    -0.07400
C1415       C  0.46283459  0.52089685  0.42961876     0.62980
H1416       H  0.51281176  0.57350939  0.45795205     0.13680
H1417       H  0.41697358  0.55860171  0.04198757     0.13690
C1418       C  0.45645836  0.61874049  0.03383637     0.63220
F1419       F  0.46641984  0.53855704  0.39042517    -0.21950
F1420       F  0.43541342  0.99170267  0.92470225    -0.19280
F1421       F  0.48854489  0.51499437  0.43213740    -0.18960
F1422       F  0.42810699  0.61236346  0.01218705    -0.19010
F1423       F  0.47909874  0.64900637  0.51976011    -0.19330
F1424       F  0.45182882  0.61926084  0.58051072    -0.22000
C1425       C  0.37501538  0.94218902  0.98928812    -0.04840
C1426       C  0.40391183  0.96982343  0.00238532     0.01080
C1427       C  0.42683885  0.96395548  0.52662334    -0.07490
C1428       C  0.42190236  0.93207221  0.52778740    -0.04860
C1429       C  0.39576588  0.90557213  0.00634479     0.01070
C1430       C  0.36962357  0.91045752  0.99269454    -0.07400
C1431       C  0.33490370  0.88459519  0.98335948     0.62980
H1432       H  0.35483075  0.94517355  0.97878783     0.13680
H1433       H  0.43970552  0.92783496  0.54458005     0.13690
C1434       C  0.45731473  0.98951471  0.55049759     0.63220
F1435       F  0.31409984  0.89203589  0.00705961    -0.21950
F1436       F  0.32764164  0.85398745  0.49641093    -0.19280
F1437       F  0.32838977  0.88426430  0.93730058    -0.18960
F1438       F  0.45261865  0.01255107  0.57262551    -0.19010
F1439       F  0.48194501  0.50409120  0.01937180    -0.19330
F1440       F  0.46790823  0.97596952  0.58338106    -0.22000
C1441       C  0.90310857  0.50234820  0.00013554    -0.01550
C1442       C  0.65395632  0.00254406  0.00011219    -0.01550
C1443       C  0.65590894  0.13088990  0.00433188    -0.01550
C1444       C  0.52693146  0.12776517  0.00423697    -0.01550
C1445       C  0.52552368  0.37815123  0.99846808    -0.01550
C1446       C  0.89570745  0.37265569  0.00661091    -0.01550
O1447       O  0.54315947  0.36727828  0.32256211    -0.56880
C1448       C  0.52312113  0.35820746  0.45545328     0.75750
O1449       O  0.95601535  0.30174477  0.33845768    -0.58030
C1450       C  0.52418332  0.35782335  0.28849108     0.75720
C1451       C  0.51690753  0.26295050  0.37508483     0.78120
Cd1452     Cd  0.50908967  0.31974881  0.37196210     1.37470
O1453       O  0.53895387  0.37032210  0.41896885    -0.56870
O1454       O  0.54213490  0.29026592  0.37395513    -0.55680
C1455       C  0.94367781  0.30301297  0.37624798     0.78080
O1456       O  0.99058661  0.26309981  0.37375692    -0.58050
O1457       O  0.50349888  0.32838171  0.45351396    -0.56510
O1458       O  0.00032520  0.32980866  0.29197570    -0.56500
O1459       O  0.96096624  0.30983476  0.41151017    -0.55670
O1460       O  0.53577335  0.14532441  0.33357624    -0.56880
C1461       C  0.52397341  0.14447547  0.46116036     0.75750
O1462       O  0.98947985  0.20655148  0.38283287    -0.58030
C1463       C  0.52412515  0.14750747  0.29555444     0.75720
C1464       C  0.94159403  0.12013865  0.37962203     0.78120
Cd1465     Cd  0.50695289  0.16723075  0.38023741     1.37460
O1466       O  0.51611033  0.12936035  0.42353263    -0.56870
O1467       O  0.95844698  0.13061605  0.34426311    -0.55680
C1468       C  0.51628645  0.23173850  0.37789294     0.78080
O1469       O  0.95363239  0.13471354  0.41677935    -0.58050
O1470       O  0.52789150  0.17293656  0.46041190    -0.56510
O1471       O  0.50824329  0.16241474  0.29694504    -0.56500
O1472       O  0.54095742  0.22802685  0.37516764    -0.55670
O1473       O  0.86876135  0.35903588  0.43112297    -0.56880
C1474       C  0.88226295  0.35113425  0.30156707     0.75750
O1475       O  0.89566467  0.29693860  0.34368790    -0.58030
C1476       C  0.87914699  0.35069857  0.46559841     0.75720
C1477       C  0.79656433  0.25725557  0.38475814     0.78120
Cd1478     Cd  0.86010234  0.31243597  0.38339079     1.37470
O1479       O  0.88387135  0.36388134  0.34039784    -0.56870
O1480       O  0.79946325  0.28491284  0.37777542    -0.55680
C1481       C  0.91226272  0.30046577  0.37901039     0.78080
O1482       O  0.82207881  0.25614704  0.39225609    -0.58050
O1483       O  0.86851172  0.32066325  0.30078096    -0.56510
O1484       O  0.87699487  0.32305570  0.46324735    -0.56500
O1485       O  0.90205106  0.30505961  0.41665848    -0.55670
O1486       O  0.90564401  0.51277748  0.32851264    -0.56880
C1487       C  0.88635779  0.00581071  0.45731597     0.75750
O1488       O  0.89759254  0.07514060  0.41338057    -0.58030
C1489       C  0.89189074  0.00834694  0.29008762     0.75720
C1490       C  0.80164690  0.01413913  0.37371971     0.78120
Cd1491     Cd  0.86660873  0.02342115  0.37364535     1.37470
O1492       O  0.87831861  0.48721489  0.42257473    -0.56870
O1493       O  0.80524335  0.48936511  0.37676326    -0.55680
C1494       C  0.91199074  0.08975327  0.37758355     0.78080
O1495       O  0.82697170  0.04087199  0.36972449    -0.58050
O1496       O  0.88154772  0.02966320  0.45400634    -0.56510
O1497       O  0.86528805  0.00852567  0.29089141    -0.56500
O1498       O  0.90226815  0.07491425  0.33998783    -0.55670
O1499       O  0.66696394  0.48658428  0.32697044    -0.56880
C1500       C  0.67412937  0.00672218  0.45714566     0.75750
O1501       O  0.77052985  0.04033994  0.37753967    -0.58030
C1502       C  0.67581421  0.00554437  0.29298938     0.75720
C1503       C  0.72903466  0.08662338  0.37657628     0.78120
Cd1504     Cd  0.71393924  0.02196198  0.37496036     1.37470
O1505       O  0.66237128  0.50309720  0.41737530    -0.56870
O1506       O  0.71838586  0.06828410  0.41058782    -0.55680
C1507       C  0.77050542  0.01378017  0.37506629     0.78080
O1508       O  0.73755276  0.07659664  0.34196316    -0.58050
O1509       O  0.70376343  0.01473814  0.45885169    -0.56510
O1510       O  0.70351696  0.02982419  0.29578735    -0.56500
O1511       O  0.74312316  0.48856145  0.37352480    -0.55670
O1512       O  0.66460494  0.12814694  0.42324572    -0.56880
C1513       C  0.67509286  0.14661628  0.29122020     0.75750
O1514       O  0.76581172  0.20077153  0.39012398    -0.58030
C1515       C  0.67390914  0.14452910  0.45977476     0.75720
C1516       C  0.72677126  0.11575797  0.37633283     0.78120
Cd1517     Cd  0.71025357  0.16480103  0.37542764     1.37470
O1518       O  0.66378909  0.15386672  0.32590101    -0.56870
O1519       O  0.70725836  0.11774967  0.40339068    -0.55680
C1520       C  0.76592650  0.22708907  0.38302879     0.78080
O1521       O  0.74142899  0.13846648  0.34825879    -0.58050
O1522       O  0.70379138  0.15234848  0.29463579    -0.56510
O1523       O  0.69892379  0.17192443  0.45647135    -0.56500
O1524       O  0.73916571  0.22547217  0.37326811    -0.55670
C1525       C  0.90706199  0.00345868  0.24559867    -0.01550
C1526       C  0.65464869  0.00127134  0.25156416    -0.01500
C1527       C  0.65515657  0.12935358  0.24897343    -0.01550
C1528       C  0.52926763  0.13324090  0.25133433    -0.01550
C1529       C  0.52741663  0.37891549  0.24660947    -0.01550
C1530       C  0.89752789  0.37105945  0.25880384    -0.01550
O1531       O  0.89280643  0.02028440  0.17327433    -0.56880
C1532       C  0.88299223  0.50005349  0.04247588     0.75750
O1533       O  0.81953562  0.43087328  0.15944694    -0.58030
C1534       C  0.88460378  0.50060232  0.20642627     0.75720
C1535       C  0.78920285  0.49379504  0.12483053     0.78120
Cd1536     Cd  0.84431208  0.48463599  0.12518323     1.37460
O1537       O  0.89375200  0.00081102  0.08210146    -0.56870
O1538       O  0.81652766  0.01898778  0.12745868    -0.55680
C1539       C  0.82163265  0.41705035  0.12360431     0.78080
O1540       O  0.78892070  0.46716527  0.12282532    -0.58050
O1541       O  0.85444599  0.49540996  0.04070380    -0.56510
O1542       O  0.85653620  0.47678079  0.20422518    -0.56500
O1543       O  0.83147499  0.43387004  0.08779531    -0.55670
O1544       O  0.65597673  0.99248942  0.16992505    -0.56880
C1545       C  0.67057289  0.49818614  0.04233558     0.75750
O1546       O  0.73306611  0.46633117  0.12666593    -0.58030
C1547       C  0.67060806  0.99813771  0.20778081     0.75720
C1548       C  0.64934391  0.41743528  0.12768163     0.78120
Cd1549     Cd  0.69402275  0.48344985  0.12497089     1.37470
O1550       O  0.68494144  0.01996233  0.07259415    -0.56870
O1551       O  0.65861460  0.43407314  0.16387849    -0.55680
C1552       C  0.75826051  0.49330895  0.12450595     0.78080
O1553       O  0.66475884  0.42990135  0.09140911    -0.58050
O1554       O  0.67010381  0.47188105  0.04983910    -0.56510
O1555       O  0.69846566  0.50092655  0.20638306    -0.56500
O1556       O  0.75470608  0.01809235  0.12185477    -0.55670
O1557       O  0.68067738  0.14282109  0.08018595    -0.56880
C1558       C  0.66986218  0.14962648  0.20666734     0.75750
O1559       O  0.72877575  0.24593100  0.13316842    -0.58030
C1560       C  0.67249865  0.15266552  0.04502871     0.75720
C1561       C  0.64420583  0.20787822  0.12814264     0.78120
Cd1562     Cd  0.69202046  0.19019532  0.12713235     1.37460
O1563       O  0.65657729  0.14033866  0.16803320    -0.56870
O1564       O  0.65515024  0.20351971  0.16513403    -0.55680
C1565       C  0.75469677  0.24504740  0.12893153     0.78080
O1566       O  0.65851271  0.20853445  0.09146741    -0.58050
O1567       O  0.69462732  0.17728577  0.20801534    -0.56510
O1568       O  0.67721986  0.18125036  0.04672000    -0.56500
O1569       O  0.75261429  0.21748244  0.12367312    -0.55670
O1570       O  0.51909677  0.14224109  0.17183778    -0.56880
C1571       C  0.53285435  0.14973675  0.04572467     0.75750
O1572       O  0.56745269  0.24739392  0.12195001    -0.58030
C1573       C  0.53435924  0.15402352  0.20886493     0.75720
C1574       C  0.61382287  0.20741261  0.12715458     0.78120
Cd1575     Cd  0.54923843  0.19122756  0.12536635     1.37460
O1576       O  0.51559934  0.14120705  0.08147640    -0.56870
O1577       O  0.59814147  0.20370836  0.16351875    -0.55680
C1578       C  0.54116001  0.24760887  0.12249956     0.78080
O1579       O  0.60036606  0.20665289  0.08964868    -0.58050
O1580       O  0.55661069  0.17793977  0.04652701    -0.56510
O1581       O  0.55451789  0.18369242  0.20750076    -0.56500
O1582       O  0.51587694  0.22035337  0.12406508    -0.55670
O1583       O  0.88817063  0.36869904  0.17723638    -0.56880
C1584       C  0.87783904  0.35694987  0.05095829     0.75750
O1585       O  0.78346939  0.30140642  0.13270500    -0.58030
C1586       C  0.87716395  0.35685950  0.21596079     0.75720
C1587       C  0.81877721  0.38519016  0.12524329     0.78120
Cd1588     Cd  0.83897283  0.33826032  0.13258604     1.37470
O1589       O  0.88714705  0.37197313  0.08854091    -0.56870
O1590       O  0.82606583  0.37410374  0.09079484    -0.55680
C1591       C  0.78484479  0.27550067  0.12998982     0.78080
O1592       O  0.81503516  0.37055130  0.16265188    -0.58050
O1593       O  0.85253640  0.32967739  0.05271227    -0.56510
O1594       O  0.84865456  0.33363203  0.21608562    -0.56500
O1595       O  0.81258847  0.27778802  0.12839917    -0.55670
O1596       O  0.53702905  0.37813951  0.07890252    -0.56880
C1597       C  0.53113823  0.36249562  0.20351525     0.75750
O1598       O  0.56917841  0.30408139  0.12115931    -0.58030
C1599       C  0.53293789  0.36425612  0.04059557     0.75720
C1600       C  0.61890817  0.38788087  0.12645378     0.78120
Cd1601     Cd  0.55244457  0.34353704  0.12213109     1.37460
O1602       O  0.53351364  0.37504630  0.16473510    -0.56870
O1603       O  0.60236948  0.37702904  0.16225658    -0.55680
C1604       C  0.54203834  0.27892826  0.12180020     0.78080
O1605       O  0.60582588  0.37500562  0.08892750    -0.58050
O1606       O  0.53454378  0.33757315  0.20410955    -0.56510
O1607       O  0.53675670  0.33957231  0.03982502    -0.56500
O1608       O  0.51739609  0.28279315  0.12214514    -0.55670
C1609       C  0.97057979  0.36070672  0.21695625    -0.04840
C1610       C  0.99535220  0.38051299  0.24772553     0.01080
C1611       C  0.98642775  0.39479690  0.28435297    -0.07490
C1612       C  0.95509804  0.39120715  0.28529498    -0.04860
C1613       C  0.93069238  0.37163714  0.25418761     0.01070
C1614       C  0.93824838  0.35288845  0.22280650    -0.07400
C1615       C  0.91388109  0.32131399  0.19982163     0.62980
H1616       H  0.97531846  0.34776316  0.19030509     0.13680
H1617       H  0.94914862  0.40334218  0.31206883     0.13690
C1618       C  0.50722867  0.41256519  0.32541804     0.63220
F1619       F  0.92586708  0.29989290  0.19731513    -0.21950
F1620       F  0.90769979  0.32711415  0.15572940    -0.19280
F1621       F  0.88563780  0.30547169  0.22411388    -0.18960
F1622       F  0.50670412  0.44124690  0.33188285    -0.19010
F1623       F  0.53896664  0.42060872  0.32297774    -0.19330
F1624       F  0.99452463  0.39285736  0.36297901    -0.22000
C1625       C  0.62112350  0.15665530  0.26096499    -0.04840
C1626       C  0.62107489  0.12730660  0.25215990     0.01080
C1627       C  0.59026386  0.09983330  0.24571168    -0.07490
C1628       C  0.56251443  0.10211414  0.25755301    -0.04860
C1629       C  0.56194115  0.13181198  0.25831683     0.01070
C1630       C  0.59324649  0.15994598  0.26486078    -0.07400
C1631       C  0.60142513  0.19418935  0.28020691     0.62980
H1632       H  0.64424193  0.17825191  0.26479188     0.13680
H1633       H  0.54098365  0.07964048  0.26334506     0.13690
C1634       C  0.58399880  0.06978813  0.21867220     0.63220
F1635       F  0.61714288  0.20052386  0.32187126    -0.21950
F1636       F  0.57626706  0.20030300  0.28595843    -0.19280
F1637       F  0.62226679  0.21633858  0.24899987    -0.18960
F1638       F  0.57597384  0.04413889  0.24772849    -0.19010
F1639       F  0.60923338  0.07437661  0.19074962    -0.19330
F1640       F  0.55857174  0.06154459  0.18949438    -0.22000
C1641       C  0.67081299  0.05728776  0.21818139    -0.04840
C1642       C  0.65222097  0.03344712  0.25084919     0.01080
C1643       C  0.63698646  0.04319346  0.28541034    -0.07490
C1644       C  0.63885222  0.07392967  0.28237172    -0.04860
C1645       C  0.65622369  0.09673008  0.24813638     0.01070
C1646       C  0.67611080  0.08913790  0.21921071    -0.07400
C1647       C  0.70576395  0.11360994  0.19273573     0.62980
H1648       H  0.68398437  0.05223916  0.19246731     0.13680
H1649       H  0.62629730  0.08043412  0.30777096     0.13690
C1650       C  0.61849011  0.02366960  0.32703199     0.63220
F1651       F  0.72715507  0.10216388  0.18444809    -0.21950
F1652       F  0.72297397  0.14184768  0.21705983    -0.19280
F1653       F  0.69687532  0.11977867  0.15085197    -0.18960
F1654       F  0.61620723  0.99378428  0.33064992    -0.19010
F1655       F  0.58750744  0.51913532  0.32586776    -0.19330
F1656       F  0.63338964  0.04089365  0.36623824    -0.22000
C1657       C  0.58734844  0.41076221  0.25805547    -0.04840
C1658       C  0.55930899  0.41208703  0.24642006     0.01080
C1659       C  0.56371410  0.44259540  0.23063512    -0.07490
C1660       C  0.59420045  0.47026314  0.23623398    -0.04860
C1661       C  0.62179632  0.46918720  0.25186513     0.01070
C1662       C  0.61823583  0.43765840  0.25968659    -0.07400
C1663       C  0.64458136  0.42900978  0.27097991     0.62980
H1664       H  0.58520227  0.38733746  0.26464703     0.13680
H1665       H  0.59671882  0.49323661  0.22611330     0.13690
C1666       C  0.53836952  0.44749632  0.20528447     0.63220
F1667       F  0.64248483  0.42114565  0.31681013    -0.21950
F1668       F  0.67539319  0.45263373  0.26171170    -0.19280
F1669       F  0.63989017  0.40221036  0.24586243    -0.18960
F1670       F  0.51847974  0.45141340  0.23602199    -0.19010
F1671       F  0.52040188  0.42219946  0.17600054    -0.19330
F1672       F  0.55248895  0.47491139  0.17836064    -0.22000
C1673       C  0.93853521  0.06511018  0.24876767    -0.04840
C1674       C  0.94047811  0.03654763  0.23982732     0.01080
C1675       C  0.97046378  0.04308849  0.21821231    -0.07490
C1676       C  0.99687801  0.07499256  0.21875055    -0.04860
C1677       C  0.99663248  0.10067854  0.24218821     0.01070
C1678       C  0.96475229  0.09669886  0.24535859    -0.07400
C1679       C  0.95448981  0.12166579  0.23220439     0.62980
H1680       H  0.91501739  0.06298221  0.25371733     0.13680
H1681       H  0.51817916  0.08066635  0.19922389     0.13690
C1682       C  0.97532396  0.01927250  0.18976661     0.63220
F1683       F  0.93687880  0.11141411  0.19211968    -0.21950
F1684       F  0.97901312  0.15233614  0.22422326    -0.19280
F1685       F  0.93463362  0.12342428  0.26526296    -0.18960
F1686       F  0.95052796  0.00507861  0.15974438    -0.19010
F1687       F  0.97828034  0.99749574  0.21764242    -0.19330
F1688       F  0.00240640  0.03340777  0.16257633    -0.22000
C1689       C  0.88513195  0.44633759  0.28290368    -0.04840
C1690       C  0.90601754  0.46912244  0.24999428     0.01080
C1691       C  0.91765250  0.45450631  0.21744304    -0.07490
C1692       C  0.92412763  0.43024590  0.23411405    -0.04860
C1693       C  0.90107047  0.40579335  0.26246061     0.01070
C1694       C  0.87813061  0.41366574  0.28298305    -0.07400
C1695       C  0.84447716  0.39009294  0.30035687     0.62980
H1696       H  0.86992635  0.45184790  0.30439112     0.13680
H1697       H  0.93950405  0.42431643  0.21347170     0.13690
C1698       C  0.90287902  0.44436405  0.16990997     0.63220
F1699       F  0.84434868  0.39062394  0.34756260    -0.21950
F1700       F  0.83282712  0.35889008  0.28518005    -0.19280
F1701       F  0.82280423  0.39956514  0.28500277    -0.18960
F1702       F  0.92305008  0.43885508  0.14153326    -0.19010
F1703       F  0.89582987  0.96568971  0.14840751    -0.19330
F1704       F  0.87457566  0.41604766  0.17416218    -0.22000
C1705       C  0.93727293  0.35697625  0.03450418    -0.04840
C1706       C  0.93061159  0.37658795  0.00534482     0.01080
C1707       C  0.95452910  0.39459086  0.47136842    -0.07490
C1708       C  0.98364918  0.39306465  0.47069388    -0.04860
C1709       C  0.99123671  0.37548777  0.00245317     0.01070
C1710       C  0.96524005  0.35390733  0.03183891    -0.07400
C1711       C  0.96337807  0.32485582  0.05754842     0.62980
H1712       H  0.91926183  0.34195370  0.05884938     0.13680
H1713       H  0.00198844  0.40725953  0.44596849     0.13690
C1714       C  0.95250800  0.41857557  0.43841217     0.63220
F1715       F  0.93204119  0.30245689  0.06871186    -0.21950
F1716       F  0.98016396  0.33449742  0.09816965    -0.19280
F1717       F  0.97445417  0.30825834  0.03089783    -0.18960
F1718       F  0.96376696  0.44824182  0.95915790    -0.19010
F1719       F  0.92216091  0.40858241  0.42189385    -0.19330
F1720       F  0.97143561  0.42349087  0.40080279    -0.22000
C1721       C  0.60026837  0.11554147  0.03922417    -0.04840
C1722       C  0.62168384  0.12904723  0.50200801     0.01080
C1723       C  0.61158258  0.14415208  0.46808605    -0.07490
C1724       C  0.57900585  0.13590848  0.46553735    -0.04860
C1725       C  0.55740602  0.12262998  0.50251261     0.01070
C1726       C  0.56858831  0.11125954  0.04011260    -0.07400
C1727       C  0.54960037  0.09499530  0.08312088     0.62980
H1728       H  0.60872305  0.10843443  0.06909278     0.13680
H1729       H  0.57219964  0.14433685  0.43570502     0.13690
C1730       C  0.63413944  0.17515092  0.44240025     0.63220
F1731       F  0.55129548  0.06706623  0.09074721    -0.21950
F1732       F  0.51755418  0.08620408  0.08115781    -0.19280
F1733       F  0.56316651  0.11553141  0.12008950    -0.18960
F1734       F  0.64391777  0.16807341  0.40166637    -0.19010
F1735       F  0.66031844  0.19520846  0.46879620    -0.19330
F1736       F  0.61914141  0.19313635  0.43194959    -0.22000
C1737       C  0.62892224  0.06875787  0.02239205    -0.04840
C1738       C  0.65675461  0.09809408  0.01079541     0.01080
C1739       C  0.68588879  0.09564028  0.50714900    -0.07490
C1740       C  0.68310143  0.06474754  0.50133696    -0.04860
C1741       C  0.65398044  0.03571688  0.00749619     0.01070
C1742       C  0.63052645  0.04029447  0.03145010    -0.07400
C1743       C  0.61939391  0.02591083  0.07879428     0.62980
H1744       H  0.60639093  0.06776973  0.02977545     0.13680
H1745       H  0.70488082  0.06337873  0.49574676     0.13690
C1746       C  0.72071166  0.12260681  0.51309636     0.63220
F1747       F  0.64404875  0.04288868  0.10951022    -0.21950
F1748       F  0.61145768  0.99381889  0.08088678    -0.19280
F1749       F  0.59312666  0.02881819  0.09290689    -0.18960
F1750       F  0.72506157  0.15330276  0.01706043    -0.19010
F1751       F  0.73940741  0.12253925  0.47694224    -0.19330
F1752       F  0.73288470  0.11644660  0.55240129    -0.22000
C1753       C  0.59099097  0.47168296  0.49351908    -0.04840
C1754       C  0.62027972  0.47060246  0.99237366     0.01080
C1755       C  0.61645292  0.43874771  0.98442434    -0.07490
C1756       C  0.58536637  0.41169503  0.98550241    -0.04860
C1757       C  0.55662491  0.41267215  0.99456127     0.01070
C1758       C  0.56051337  0.44429681  0.50193144    -0.07400
C1759       C  0.53566944  0.45179384  0.52339012     0.62980
H1760       H  0.59128039  0.49435566  0.49078241     0.13680
H1761       H  0.58355492  0.38817685  0.98039951     0.13690
C1762       C  0.64201208  0.42902853  0.97193529     0.63220
F1763       F  0.55040479  0.47924645  0.05009635    -0.21950
F1764       F  0.51490511  0.42779135  0.05228790    -0.19280
F1765       F  0.51925738  0.45788041  0.48958301    -0.18960
F1766       F  0.64055521  0.40644110  0.00300128    -0.19010
F1767       F  0.67333335  0.45309108  0.47063096    -0.19330
F1768       F  0.63491521  0.41470815  0.42905719    -0.22000
C1769       C  0.99202658  0.06985253  0.97772096    -0.04840
C1770       C  0.99431285  0.09563280  0.00496048     0.01080
C1771       C  0.96451010  0.09195357  0.52220000    -0.07490
C1772       C  0.93810607  0.06076593  0.52482028    -0.04860
C1773       C  0.93621759  0.03405587  0.00027911     0.01070
C1774       C  0.96290770  0.04087730  0.97080571    -0.07400
C1775       C  0.96284013  0.02089466  0.92962431     0.62980
H1776       H  0.01281666  0.07350795  0.95795760     0.13680
H1777       H  0.91698832  0.05859730  0.54199462     0.13690
C1778       C  0.95646594  0.11873715  0.53383853     0.63220
F1779       F  0.96642379  0.03855430  0.89043067    -0.21950
F1780       F  0.93541119  0.49170241  0.42471236    -0.19280
F1781       F  0.98855151  0.01499382  0.93214196    -0.18960
F1782       F  0.92811216  0.11235679  0.51219358    -0.19010
F1783       F  0.97910050  0.14900377  0.01976080    -0.19330
F1784       F  0.95182909  0.11925829  0.08051040    -0.22000
C1785       C  0.87501711  0.44219307  0.48927616    -0.04840
C1786       C  0.90390780  0.46982703  0.50239252     0.01080
C1787       C  0.92683645  0.46395523  0.02661174    -0.07490
C1788       C  0.92189855  0.43207146  0.02777682    -0.04860
C1789       C  0.89577076  0.40558043  0.50634025     0.01070
C1790       C  0.86962897  0.41046269  0.49267695    -0.07400
C1791       C  0.83490994  0.38459832  0.48334050     0.62980
H1792       H  0.85483282  0.44517555  0.47876812     0.13680
H1793       H  0.93970205  0.42783386  0.04456747     0.13690
C1794       C  0.95731437  0.48951494  0.05048135     0.63220
F1795       F  0.81410419  0.39203733  0.50703901    -0.21950
F1796       F  0.82763440  0.35398756  0.99640498    -0.19280
F1797       F  0.82839645  0.38426617  0.43728145    -0.18960
F1798       F  0.95261746  0.51254812  0.07261747    -0.19010
F1799       F  0.98195953  0.00409940  0.51931169    -0.19330
F1800       F  0.96791494  0.47597067  0.08335634    -0.22000
C1801       C  0.90310975  0.50235024  0.50013696    -0.01550
C1802       C  0.65396148  0.00254876  0.50010449    -0.01550
C1803       C  0.65591039  0.13089077  0.50432990    -0.01550
C1804       C  0.52693215  0.12776387  0.50424084    -0.01550
C1805       C  0.52552443  0.37815122  0.49846981    -0.01550
C1806       C  0.89571222  0.37265983  0.50661106    -0.01550
O1807       O  0.54315951  0.36727751  0.82256227    -0.56880
C1808       C  0.52312016  0.35820699  0.95545186     0.75750
O1809       O  0.95601598  0.30174872  0.83845470    -0.58030
C1810       C  0.52418345  0.35782270  0.78849115     0.75720
C1811       C  0.51690822  0.26294958  0.87507806     0.78120
Cd1812     Cd  0.50908926  0.31974753  0.87196117     1.37470
O1813       O  0.53895275  0.37032132  0.91896726    -0.56870
O1814       O  0.54213533  0.29026543  0.87395571    -0.55680
C1815       C  0.94367586  0.30300930  0.87624643     0.78080
O1816       O  0.99058339  0.26309493  0.87374091    -0.58050
O1817       O  0.50349811  0.32838115  0.95351308    -0.56510
O1818       O  0.00032563  0.32980730  0.79197512    -0.56500
O1819       O  0.96096168  0.30982328  0.91151047    -0.55670
O1820       O  0.53577558  0.14532029  0.83357330    -0.56880
C1821       C  0.52397406  0.14447729  0.96115619     0.75750
O1822       O  0.98947537  0.20654469  0.88281309    -0.58030
C1823       C  0.52413114  0.14750614  0.79554981     0.75720
C1824       C  0.94159717  0.12012861  0.87961754     0.78120
Cd1825     Cd  0.50695549  0.16723042  0.88022993     1.37460
O1826       O  0.51611359  0.12936287  0.92352784    -0.56870
O1827       O  0.95846885  0.13057813  0.84427080    -0.55680
C1828       C  0.51628757  0.23173765  0.87788364     0.78080
O1829       O  0.95361757  0.13472987  0.91676574    -0.58050
O1830       O  0.52789054  0.17293774  0.96040771    -0.56510
O1831       O  0.50825245  0.16241679  0.79693776    -0.56500
O1832       O  0.54095941  0.22802698  0.87516562    -0.55670
O1833       O  0.86875579  0.35903135  0.93112323    -0.56880
C1834       C  0.88226346  0.35113414  0.80156801     0.75750
O1835       O  0.89566449  0.29693880  0.84368590    -0.58030
C1836       C  0.87914188  0.35069433  0.96559846     0.75720
C1837       C  0.79656317  0.25725152  0.88475847     0.78120
Cd1838     Cd  0.86010066  0.31243311  0.88338998     1.37470
O1839       O  0.88387683  0.36388072  0.84040069    -0.56870
O1840       O  0.79946164  0.28490860  0.87777534    -0.55680
C1841       C  0.91226093  0.30046254  0.87900896     0.78080
O1842       O  0.82207806  0.25614339  0.89225462    -0.58050
O1843       O  0.86850585  0.32066282  0.80077919    -0.56510
O1844       O  0.87699099  0.32305200  0.96324684    -0.56500
O1845       O  0.90204783  0.30505332  0.91665784    -0.55670
O1846       O  0.90564458  0.51277841  0.82851317    -0.56880
C1847       C  0.88635381  0.00580943  0.95732443     0.75750
O1848       O  0.89758114  0.07514287  0.91337706    -0.58030
C1849       C  0.89188980  0.00834313  0.79008657     0.75720
C1850       C  0.80164387  0.01413282  0.87372943     0.78120
Cd1851     Cd  0.86660610  0.02341559  0.87364837     1.37470
O1852       O  0.87831666  0.48721281  0.92257390    -0.56870
O1853       O  0.80524267  0.48936457  0.87676200    -0.55680
C1854       C  0.91199087  0.08974621  0.87758092     0.78080
O1855       O  0.82696811  0.04086597  0.86973182    -0.58050
O1856       O  0.88154591  0.02966291  0.95400963    -0.56510
O1857       O  0.86528836  0.00852479  0.79088970    -0.56500
O1858       O  0.90227651  0.07489982  0.83998916    -0.55670
O1859       O  0.66696386  0.48658400  0.82697054    -0.56880
C1860       C  0.67412484  0.00671234  0.95715470     0.75750
O1861       O  0.77052555  0.04033202  0.87757179    -0.58030
C1862       C  0.67582609  0.00554366  0.79298203     0.75720
C1863       C  0.72901534  0.08660962  0.87658684     0.78120
Cd1864     Cd  0.71393483  0.02195233  0.87496725     1.37470
O1865       O  0.66237087  0.50309686  0.91737501    -0.56870
O1866       O  0.71831599  0.06824938  0.91056880    -0.55680
C1867       C  0.77050204  0.01377303  0.87508339     0.78080
O1868       O  0.73758842  0.07660575  0.84200527    -0.58050
O1869       O  0.70376184  0.01473955  0.95886239    -0.56510
O1870       O  0.70352742  0.02982442  0.79578943    -0.56500
O1871       O  0.74312269  0.48856125  0.87352462    -0.55670
O1872       O  0.66460358  0.12814792  0.92324829    -0.56880
C1873       C  0.67510036  0.14661797  0.79121604     0.75750
O1874       O  0.76581004  0.20076733  0.89012968    -0.58030
C1875       C  0.67390896  0.14452886  0.95977783     0.75720
C1876       C  0.72675395  0.11574504  0.87633733     0.78120
Cd1877     Cd  0.71025198  0.16479811  0.87542847     1.37470
O1878       O  0.66379547  0.15387061  0.82589352    -0.56870
O1879       O  0.70721281  0.11772213  0.90335478    -0.55680
C1880       C  0.76592522  0.22708493  0.88303141     0.78080
O1881       O  0.74144747  0.13847245  0.84830282    -0.58050
O1882       O  0.70379819  0.15234867  0.79463593    -0.56510
O1883       O  0.69892552  0.17192288  0.95647532    -0.56500
O1884       O  0.73916465  0.22546826  0.87326937    -0.55670
C1885       C  0.90706367  0.00345827  0.74559629    -0.01550
C1886       C  0.65466429  0.00127441  0.75155414    -0.01500
C1887       C  0.65516571  0.12935483  0.74896843    -0.01550
C1888       C  0.52927452  0.13323943  0.75133046    -0.01550
C1889       C  0.52741682  0.37891480  0.74660962    -0.01550
C1890       C  0.89752964  0.37106012  0.75880560    -0.01550
O1891       O  0.89281500  0.02028867  0.67327071    -0.56880
C1892       C  0.88299319  0.50005545  0.54247710     0.75750
O1893       O  0.81953542  0.43087315  0.65944528    -0.58030
C1894       C  0.88460481  0.50060219  0.70642696     0.75720
C1895       C  0.78920353  0.49379558  0.62483218     0.78120
Cd1896     Cd  0.84431280  0.48463665  0.62518408     1.37460
O1897       O  0.89376313  0.00080786  0.58209055    -0.56870
O1898       O  0.81653907  0.01899112  0.62745363    -0.55680
C1899       C  0.82163383  0.41705117  0.62360250     0.78080
O1900       O  0.78892144  0.46716585  0.62282699    -0.58050
O1901       O  0.85444680  0.49541146  0.54070470    -0.56510
O1902       O  0.85653730  0.47678056  0.70422568    -0.56500
O1903       O  0.83147710  0.43387169  0.58779435    -0.55670
O1904       O  0.65599370  0.99249776  0.66991429    -0.56880
C1905       C  0.67057397  0.49818646  0.54233588     0.75750
O1906       O  0.73306681  0.46633154  0.62666769    -0.58030
C1907       C  0.67062416  0.99814232  0.70777043     0.75720
C1908       C  0.64934417  0.41743527  0.62768204     0.78120
Cd1909     Cd  0.69402325  0.48344984  0.62497140     1.37470
O1910       O  0.68493956  0.01996262  0.57259262    -0.56870
O1911       O  0.65861518  0.43407295  0.66387899    -0.55680
C1912       C  0.75826113  0.49330937  0.62450754     0.78080
O1913       O  0.66475873  0.42990154  0.59140937    -0.58050
O1914       O  0.67010830  0.47188269  0.54983674    -0.56510
O1915       O  0.69846591  0.50092689  0.70638336    -0.56500
O1916       O  0.75471826  0.01809698  0.62184418    -0.55670
O1917       O  0.68068059  0.14282207  0.58018301    -0.56880
C1918       C  0.66987105  0.14962806  0.70666302     0.75750
O1919       O  0.72878134  0.24593210  0.63316698    -0.58030
C1920       C  0.67250133  0.15266660  0.54502629     0.75720
C1921       C  0.64421207  0.20787998  0.62814135     0.78120
Cd1922     Cd  0.69202661  0.19019701  0.62712903     1.37460
O1923       O  0.65658617  0.14033996  0.66802896    -0.56870
O1924       O  0.65515632  0.20352073  0.66513240    -0.55680
C1925       C  0.75470247  0.24504904  0.62892774     0.78080
O1926       O  0.65851898  0.20853673  0.59146594    -0.58050
O1927       O  0.69463533  0.17728792  0.70801149    -0.56510
O1928       O  0.67722373  0.18125185  0.54671752    -0.56500
O1929       O  0.75262041  0.21748445  0.62366649    -0.55670
O1930       O  0.51910614  0.14224038  0.67183371    -0.56880
C1931       C  0.53285677  0.14973638  0.54572757     0.75750
O1932       O  0.56745729  0.24739496  0.62194508    -0.58030
C1933       C  0.53436669  0.15402273  0.70886208     0.75720
C1934       C  0.61382918  0.20741455  0.62715357     0.78120
Cd1935     Cd  0.54924458  0.19122880  0.62536658     1.37460
O1936       O  0.51560228  0.14120806  0.58147978    -0.56870
O1937       O  0.59814885  0.20371262  0.66351819    -0.55680
C1938       C  0.54116423  0.24760911  0.62249957     0.78080
O1939       O  0.60037133  0.20665258  0.58964767    -0.58050
O1940       O  0.55661404  0.17793892  0.54652825    -0.56510
O1941       O  0.55452311  0.18369243  0.70750061    -0.56500
O1942       O  0.51588183  0.22035330  0.62407006    -0.55670
O1943       O  0.88817364  0.36870167  0.67723763    -0.56880
C1944       C  0.87784322  0.35695357  0.55095804     0.75750
O1945       O  0.78347382  0.30140784  0.63270377    -0.58030
C1946       C  0.87716637  0.35686128  0.71596147     0.75720
C1947       C  0.81877913  0.38519128  0.62524080     0.78120
Cd1948     Cd  0.83897652  0.33826284  0.63258503     1.37470
O1949       O  0.88715074  0.37197645  0.58854103    -0.56870
O1950       O  0.82607028  0.37410649  0.59079303    -0.55680
C1951       C  0.78485004  0.27550261  0.62998674     0.78080
O1952       O  0.81503536  0.37055128  0.66264877    -0.58050
O1953       O  0.85254079  0.32968087  0.55271134    -0.56510
O1954       O  0.84865695  0.33363390  0.71608490    -0.56500
O1955       O  0.81259404  0.27779076  0.62839517    -0.55670
O1956       O  0.53702979  0.37813883  0.57890406    -0.56880
C1957       C  0.53113828  0.36249463  0.70351559     0.75750
O1958       O  0.56918093  0.30408170  0.62115712    -0.58030
C1959       C  0.53293830  0.36425555  0.54059699     0.75720
C1960       C  0.61890856  0.38788073  0.62645436     0.78120
Cd1961     Cd  0.55244523  0.34353611  0.62213189     1.37460
O1962       O  0.53351318  0.37504480  0.66473521    -0.56870
O1963       O  0.60237012  0.37702856  0.66225732    -0.55680
C1964       C  0.54204137  0.27892799  0.62180046     0.78080
O1965       O  0.60582617  0.37500557  0.58892811    -0.58050
O1966       O  0.53454456  0.33757257  0.70411035    -0.56510
O1967       O  0.53675660  0.33957143  0.53982609    -0.56500
O1968       O  0.51739852  0.28279189  0.62214806    -0.55670
C1969       C  0.97058099  0.36070672  0.71695769    -0.04840
C1970       C  0.99535355  0.38051248  0.74772699     0.01080
C1971       C  0.98642964  0.39479641  0.78435515    -0.07490
C1972       C  0.95509995  0.39120702  0.78529754    -0.04860
C1973       C  0.93069408  0.37163747  0.75418992     0.01070
C1974       C  0.93824975  0.35288882  0.72280833    -0.07400
C1975       C  0.91388213  0.32131464  0.69982322     0.62980
H1976       H  0.97531940  0.34776325  0.69030614     0.13680
H1977       H  0.94915075  0.40334215  0.81207133     0.13690
C1978       C  0.50722977  0.41256538  0.82541827     0.63220
F1979       F  0.92586776  0.29989329  0.69731578    -0.21950
F1980       F  0.90770061  0.32711520  0.65573130    -0.19280
F1981       F  0.88563902  0.30547250  0.72411595    -0.18960
F1982       F  0.50670539  0.44124717  0.83188324    -0.19010
F1983       F  0.53896768  0.42060871  0.82297766    -0.19330
F1984       F  0.99453021  0.39285386  0.86298016    -0.22000
C1985       C  0.62113103  0.15665527  0.76095859    -0.04840
C1986       C  0.62108344  0.12730701  0.75215370     0.01080
C1987       C  0.59027292  0.09983357  0.74570490    -0.07490
C1988       C  0.56252274  0.10211322  0.75754704    -0.04860
C1989       C  0.56194839  0.13181069  0.75831306     0.01070
C1990       C  0.59325357  0.15994499  0.76485675    -0.07400
C1991       C  0.60143195  0.19418780  0.78020531     0.62980
H1992       H  0.64424917  0.17825238  0.76478444     0.13680
H1993       H  0.54099246  0.07963902  0.76333829     0.13690
C1994       C  0.58400904  0.06978967  0.71866339     0.63220
F1995       F  0.61715001  0.20052119  0.82186932    -0.21950
F1996       F  0.57627380  0.20030100  0.78595876    -0.19280
F1997       F  0.62227329  0.21633811  0.74899910    -0.18960
F1998       F  0.57597781  0.04413788  0.74771731    -0.19010
F1999       F  0.60924593  0.07437684  0.69074707    -0.19330
F2000       F  0.55858695  0.06155166  0.68947856    -0.22000
C2001       C  0.67083338  0.05729458  0.71818069    -0.04840
C2002       C  0.65223713  0.03345076  0.75084228     0.01080
C2003       C  0.63699775  0.04319377  0.78540038    -0.07490
C2004       C  0.63886135  0.07392917  0.78236235    -0.04860
C2005       C  0.65623521  0.09673216  0.74813088     0.01070
C2006       C  0.67612719  0.08914356  0.71920936    -0.07400
C2007       C  0.70577971  0.11361840  0.69273559     0.62980
H2008       H  0.68400968  0.05224853  0.69247156     0.13680
H2009       H  0.62630290  0.08043097  0.80775920     0.13690
C2010       C  0.61849774  0.02366679  0.82701795     0.63220
F2011       F  0.72717300  0.10217543  0.68444525    -0.21950
F2012       F  0.72298770  0.14185530  0.71706234    -0.19280
F2013       F  0.69689057  0.11978826  0.65085286    -0.18960
F2014       F  0.61621989  0.99378378  0.83063820    -0.19010
F2015       F  0.58750789  0.51913537  0.82587000    -0.19330
F2016       F  0.63339007  0.04089067  0.86622758    -0.22000
C2017       C  0.58734863  0.41076160  0.75805556    -0.04840
C2018       C  0.55930916  0.41208627  0.74641988     0.01080
C2019       C  0.56371414  0.44259453  0.73063473    -0.07490
C2020       C  0.59420032  0.47026239  0.73623391    -0.04860
C2021       C  0.62179624  0.46918662  0.75186522     0.01070
C2022       C  0.61823595  0.43765790  0.75968671    -0.07400
C2023       C  0.64458164  0.42900954  0.77098017     0.62980
H2024       H  0.58520256  0.38733691  0.76464736     0.13680
H2025       H  0.59671851  0.49323579  0.72611324     0.13690
C2026       C  0.53836962  0.44749526  0.70528357     0.63220
F2027       F  0.64248521  0.42114559  0.81681044    -0.21950
F2028       F  0.67539339  0.45263360  0.76171177    -0.19280
F2029       F  0.63989059  0.40221007  0.74586291    -0.18960
F2030       F  0.51848015  0.45141315  0.73602075    -0.19010
F2031       F  0.52040163  0.42219797  0.67600047    -0.19330
F2032       F  0.55248923  0.47490982  0.67835873    -0.22000
C2033       C  0.93853790  0.06511063  0.74877986    -0.04840
C2034       C  0.94048067  0.03654860  0.73983171     0.01080
C2035       C  0.97046536  0.04309274  0.71820991    -0.07490
C2036       C  0.99687998  0.07499652  0.71875326    -0.04860
C2037       C  0.99663471  0.10068125  0.74219462     0.01070
C2038       C  0.96475407  0.09670010  0.74536940    -0.07400
C2039       C  0.95448989  0.12166712  0.73222185     0.62980
H2040       H  0.91502022  0.06298224  0.75373237     0.13680
H2041       H  0.51818428  0.08066187  0.69922333     0.13690
C2042       C  0.97532067  0.01928293  0.68974292     0.63220
F2043       F  0.93686633  0.11141109  0.69214817    -0.21950
F2044       F  0.97901301  0.15233503  0.72422482    -0.19280
F2045       F  0.93464497  0.12343311  0.76529222    -0.18960
F2046       F  0.95052224  0.00510240  0.65972240    -0.19010
F2047       F  0.97827465  0.99749566  0.71759828    -0.19330
F2048       F  0.00240234  0.03342267  0.66255091    -0.22000
C2049       C  0.88513425  0.44633844  0.78290690    -0.04840
C2050       C  0.90601893  0.46912287  0.74999627     0.01080
C2051       C  0.91765352  0.45450655  0.71744486    -0.07490
C2052       C  0.92412936  0.43024666  0.73411630    -0.04860
C2053       C  0.90107253  0.40579411  0.76246326     0.01070
C2054       C  0.87813305  0.41366661  0.78298670    -0.07400
C2055       C  0.84447995  0.39009362  0.80036146     0.62980
H2056       H  0.86992924  0.45184896  0.80439528     0.13680
H2057       H  0.93950591  0.42431736  0.71347400     0.13690
C2058       C  0.90287762  0.44436247  0.66991340     0.63220
F2059       F  0.84435292  0.39062216  0.84756725    -0.21950
F2060       F  0.83282886  0.35889152  0.78518055    -0.19280
F2061       F  0.82280692  0.39956715  0.78501222    -0.18960
F2062       F  0.92304562  0.43884912  0.64153627    -0.19010
F2063       F  0.89582998  0.96569263  0.64840703    -0.19330
F2064       F  0.87457282  0.41604807  0.67417040    -0.22000
C2065       C  0.93727729  0.35698054  0.53450647    -0.04840
C2066       C  0.93061691  0.37659293  0.50534687     0.01080
C2067       C  0.95452323  0.39458648  0.97136633    -0.07490
C2068       C  0.98364545  0.39306427  0.97069428    -0.04860
C2069       C  0.99123997  0.37548896  0.50245432     0.01070
C2070       C  0.96524349  0.35391006  0.53184113    -0.07400
C2071       C  0.96338019  0.32485776  0.55754991     0.62980
H2072       H  0.91926614  0.34195848  0.55885193     0.13680
H2073       H  0.00198442  0.40726110  0.94596950     0.13690
C2074       C  0.95250049  0.41856917  0.93840791     0.63220
F2075       F  0.93204291  0.30245948  0.56871244    -0.21950
F2076       F  0.98016578  0.33449835  0.59817148    -0.19280
F2077       F  0.97445580  0.30825999  0.53089895    -0.18960
F2078       F  0.96375602  0.44824201  0.45917300    -0.19010
F2079       F  0.92215034  0.40858587  0.92191029    -0.19330
F2080       F  0.97141085  0.42346518  0.90078449    -0.22000
C2081       C  0.60027027  0.11554111  0.53922449    -0.04840
C2082       C  0.62168249  0.12904668  0.00200800     0.01080
C2083       C  0.61158200  0.14415149  0.96808478    -0.07490
C2084       C  0.57900554  0.13590883  0.96553547    -0.04860
C2085       C  0.55740510  0.12263083  0.00251022     0.01070
C2086       C  0.56859014  0.11125899  0.54011438    -0.07400
C2087       C  0.54960321  0.09499480  0.58312340     0.62980
H2088       H  0.60872526  0.10843288  0.56909160     0.13680
H2089       H  0.57220006  0.14433728  0.93570258     0.13690
C2090       C  0.63413941  0.17514946  0.94239738     0.63220
F2091       F  0.55129725  0.06706495  0.59074756    -0.21950
F2092       F  0.51755729  0.08620497  0.58116327    -0.19280
F2093       F  0.56317125  0.11553041  0.62009200    -0.18960
F2094       F  0.64391630  0.16807043  0.90166324    -0.19010
F2095       F  0.66031924  0.19520688  0.96879209    -0.19330
F2096       F  0.61914238  0.19313582  0.93194657    -0.22000
C2097       C  0.62892299  0.06875838  0.52238347    -0.04840
C2098       C  0.65675649  0.09809548  0.51079319     0.01080
C2099       C  0.68588587  0.09563765  0.00714538    -0.07490
C2100       C  0.68309745  0.06474422  0.00133357    -0.04860
C2101       C  0.65398380  0.03571989  0.50749259     0.01070
C2102       C  0.63052662  0.04029480  0.53144140    -0.07400
C2103       C  0.61939060  0.02590897  0.57878370     0.62980
H2104       H  0.60639047  0.06776928  0.52976125     0.13680
H2105       H  0.70487656  0.06337562  0.99574000     0.13690
C2106       C  0.72070966  0.12260450  0.01307930     0.63220
F2107       F  0.64404281  0.04288599  0.60950387    -0.21950
F2108       F  0.61145517  0.99381717  0.58087427    -0.19280
F2109       F  0.59312169  0.02881468  0.59289236    -0.18960
F2110       F  0.72506457  0.15330674  0.51705162    -0.19010
F2111       F  0.73939332  0.12254517  0.97690367    -0.19330
F2112       F  0.73289682  0.11643799  0.05236476    -0.22000
C2113       C  0.59099030  0.47168306  0.99351728    -0.04840
C2114       C  0.62028047  0.47060247  0.49237478     0.01080
C2115       C  0.61645365  0.43874768  0.48442566    -0.07490
C2116       C  0.58536717  0.41169495  0.48550480    -0.04860
C2117       C  0.55662574  0.41267208  0.49456361     0.01070
C2118       C  0.56051261  0.44429693  0.00192920    -0.07400
C2119       C  0.53566861  0.45179406  0.02338743     0.62980
H2120       H  0.59127991  0.49435587  0.99078061     0.13680
H2121       H  0.58355570  0.38817673  0.48040217     0.13690
C2122       C  0.64201251  0.42902834  0.47193541     0.63220
F2123       F  0.55040571  0.47924587  0.55009968    -0.21950
F2124       F  0.51490579  0.42779087  0.55229015    -0.19280
F2125       F  0.51925642  0.45788012  0.98957996    -0.18960
F2126       F  0.64055675  0.40644170  0.50300195    -0.19010
F2127       F  0.67333300  0.45309127  0.97063334    -0.19330
F2128       F  0.63491614  0.41470939  0.92905638    -0.22000
C2129       C  0.99202947  0.06986060  0.47769584    -0.04840
C2130       C  0.99431729  0.09563678  0.50494660     0.01080
C2131       C  0.96450456  0.09195277  0.02220482    -0.07490
C2132       C  0.93809844  0.06076616  0.02482470    -0.04860
C2133       C  0.93622419  0.03405856  0.50026496     0.01070
C2134       C  0.96291072  0.04088512  0.47078094    -0.07400
C2135       C  0.96283959  0.02090611  0.42959244     0.62980
H2136       H  0.01281825  0.07351943  0.45792617     0.13680
H2137       H  0.91697901  0.05859973  0.04199128     0.13690
C2138       C  0.95646228  0.11873853  0.03383745     0.63220
F2139       F  0.96640908  0.03856494  0.39040286    -0.21950
F2140       F  0.93540978  0.49170110  0.92471009    -0.19280
F2141       F  0.98855710  0.01501361  0.43209057    -0.18960
F2142       F  0.92811128  0.11236044  0.01218603    -0.19010
F2143       F  0.97910123  0.14900305  0.51975952    -0.19330
F2144       F  0.95183681  0.11925627  0.58051268    -0.22000
C2145       C  0.87501458  0.44219080  0.98927734    -0.04840
C2146       C  0.90390633  0.46982477  0.00239047     0.01080
C2147       C  0.92683595  0.46395726  0.52661901    -0.07490
C2148       C  0.92189793  0.43207339  0.52778537    -0.04860
C2149       C  0.89576729  0.40557713  0.00634052     0.01070
C2150       C  0.86962558  0.41046014  0.99267931    -0.07400
C2151       C  0.83490637  0.38459625  0.98334318     0.62980
H2152       H  0.85483035  0.44517378  0.97877047     0.13680
H2153       H  0.93969992  0.42783519  0.54457971     0.13690
C2154       C  0.95731367  0.48951724  0.55048870     0.63220
F2155       F  0.81410108  0.39203571  0.00704201    -0.21950
F2156       F  0.82763836  0.35398980  0.49640264    -0.19280
F2157       F  0.82839275  0.38426430  0.93728420    -0.18960
F2158       F  0.95261716  0.51255146  0.57262237    -0.19010
F2159       F  0.98195194  0.00408734  0.01937120    -0.19330
F2160       F  0.96791339  0.47597341  0.58336549    -0.22000
C2161       C  0.90311529  0.00234819  0.00013917    -0.01550
C2162       C  0.65394858  0.50254696  0.00010538    -0.01550
C2163       C  0.65590305  0.63089221  0.00432744    -0.01550
C2164       C  0.52692597  0.62776828  0.00423851    -0.01550
C2165       C  0.52552298  0.87815887  0.99846801    -0.01550
C2166       C  0.89571126  0.87265471  0.00661575    -0.01550
O2167       O  0.54316206  0.86728248  0.32256279    -0.56880
C2168       C  0.52312646  0.85821438  0.45545200     0.75750
O2169       O  0.95601627  0.80174255  0.33845788    -0.58030
C2170       C  0.52418653  0.85782706  0.28849111     0.75720
C2171       C  0.51690866  0.76295442  0.37508298     0.78120
Cd2172     Cd  0.50909255  0.81975337  0.37196275     1.37470
O2173       O  0.53895831  0.87032748  0.41896648    -0.56870
O2174       O  0.54213671  0.79026937  0.37395508    -0.55680
C2175       C  0.94367975  0.80301281  0.37624810     0.78080
O2176       O  0.99058655  0.76309864  0.37375367    -0.58050
O2177       O  0.50350337  0.82838877  0.45351481    -0.56510
O2178       O  0.00033000  0.82980907  0.29197426    -0.56500
O2179       O  0.96096951  0.80983747  0.41150918    -0.55670
O2180       O  0.53576683  0.64532235  0.33357511    -0.56880
C2181       C  0.52396895  0.64448019  0.46115851     0.75750
O2182       O  0.98947694  0.70654841  0.38282794    -0.58030
C2183       C  0.52412136  0.64750776  0.29555224     0.75720
C2184       C  0.94159080  0.62013498  0.37961940     0.78120
Cd2185     Cd  0.50694897  0.66723317  0.38023358     1.37460
O2186       O  0.51610872  0.62936572  0.42353012    -0.56870
O2187       O  0.95845198  0.63060004  0.34426576    -0.55680
C2188       C  0.51628596  0.73174172  0.37788932     0.78080
O2189       O  0.95362189  0.63472058  0.41677302    -0.58050
O2190       O  0.52788441  0.67294025  0.46041035    -0.56510
O2191       O  0.50824224  0.66241794  0.29694118    -0.56500
O2192       O  0.54095625  0.72802883  0.37516533    -0.55670
O2193       O  0.86875572  0.85902864  0.43112864    -0.56880
C2194       C  0.88226802  0.85113451  0.30157101     0.75750
O2195       O  0.89566340  0.79693242  0.34369039    -0.58030
C2196       C  0.87914141  0.85069042  0.46560317     0.75720
C2197       C  0.79656451  0.75725439  0.38475567     0.78120
Cd2198     Cd  0.86010274  0.81243331  0.38339178     1.37470
O2199       O  0.88388014  0.86388132  0.34040315    -0.56870
O2200       O  0.79946442  0.78491201  0.37777256    -0.55680
C2201       C  0.91226413  0.80046444  0.37901158     0.78080
O2202       O  0.82207837  0.75614474  0.39225439    -0.58050
O2203       O  0.86851121  0.82066328  0.30078264    -0.56510
O2204       O  0.87698935  0.82304759  0.46325031    -0.56500
O2205       O  0.90205441  0.80506177  0.41665903    -0.55670
O2206       O  0.90565115  0.01277997  0.32851142    -0.56880
C2207       C  0.88634757  0.50581175  0.45732276     0.75750
O2208       O  0.89758128  0.57514364  0.41337800    -0.58030
C2209       C  0.89188469  0.50834618  0.29008810     0.75720
C2210       C  0.80163928  0.51413783  0.37371659     0.78120
Cd2211     Cd  0.86660155  0.52342035  0.37364641     1.37470
O2212       O  0.87832598  0.98721337  0.42256828    -0.56870
O2213       O  0.80525072  0.98936613  0.37676362    -0.55680
C2214       C  0.91198552  0.58975156  0.37758151     0.78080
O2215       O  0.82696398  0.54087058  0.36971895    -0.58050
O2216       O  0.88153775  0.52966421  0.45400996    -0.56510
O2217       O  0.86528239  0.50852581  0.29089157    -0.56500
O2218       O  0.90226697  0.57490899  0.33998770    -0.55670
O2219       O  0.66697121  0.98658480  0.32697163    -0.56880
C2220       C  0.67411776  0.50672108  0.45714667     0.75750
O2221       O  0.77052205  0.54033856  0.37753450    -0.58030
C2222       C  0.67580767  0.50554383  0.29298797     0.75720
C2223       C  0.72903274  0.58662411  0.37657854     0.78120
Cd2224     Cd  0.71393109  0.52196083  0.37496217     1.37470
O2225       O  0.66238131  0.00309455  0.41737481    -0.56870
O2226       O  0.71839682  0.56829054  0.41059806    -0.55680
C2227       C  0.77049765  0.51377877  0.37506384     0.78080
O2228       O  0.73753475  0.57659027  0.34195672    -0.58050
O2229       O  0.70375114  0.51473449  0.45885326    -0.56510
O2230       O  0.70351002  0.52982402  0.29578759    -0.56500
O2231       O  0.74313104  0.98856291  0.37352286    -0.55670
O2232       O  0.66460065  0.62814870  0.42324320    -0.56880
C2233       C  0.67509008  0.64661633  0.29122018     0.75750
O2234       O  0.76581019  0.70077078  0.39012232    -0.58030
C2235       C  0.67390439  0.64453078  0.45977252     0.75720
C2236       C  0.72677130  0.61575982  0.37633646     0.78120
Cd2237     Cd  0.71025173  0.66480178  0.37542794     1.37470
O2238       O  0.66378620  0.65386603  0.32590162    -0.56870
O2239       O  0.70726962  0.61775902  0.40340841    -0.55680
C2240       C  0.76592609  0.72708872  0.38302657     0.78080
O2241       O  0.74141733  0.63846064  0.34824736    -0.58050
O2242       O  0.70378852  0.65234830  0.29463574    -0.56510
O2243       O  0.69891960  0.67192573  0.45647002    -0.56500
O2244       O  0.73916576  0.72547290  0.37326619    -0.55670
C2245       C  0.90705633  0.50345851  0.24559863    -0.01550
C2246       C  0.65464280  0.50127050  0.25156146    -0.01500
C2247       C  0.65515393  0.62935444  0.24897287    -0.01550
C2248       C  0.52926456  0.63324138  0.25133253    -0.01550
C2249       C  0.52742018  0.87891922  0.24660951    -0.01550
C2250       C  0.89753373  0.87105979  0.25880811    -0.01550
O2251       O  0.89280149  0.52028489  0.17327390    -0.56880
C2252       C  0.88299829  0.00005334  0.04247862     0.75750
O2253       O  0.81954149  0.93087323  0.15945019    -0.58030
C2254       C  0.88460913  0.00060190  0.20642672     0.75720
C2255       C  0.78920779  0.99379263  0.12483276     0.78120
Cd2256     Cd  0.84431737  0.98463509  0.12518475     1.37460
O2257       O  0.89374635  0.50081121  0.08209848    -0.56870
O2258       O  0.81652303  0.51898989  0.12745500    -0.55680
C2259       C  0.82163795  0.91704973  0.12360782     0.78080
O2260       O  0.78892609  0.96716317  0.12282513    -0.58050
O2261       O  0.85445198  0.99540956  0.04070560    -0.56510
O2262       O  0.85654168  0.97678014  0.20422623    -0.56500
O2263       O  0.83148006  0.93386887  0.08779828    -0.55670
O2264       O  0.65596935  0.49248611  0.16992252    -0.56880
C2265       C  0.67057866  0.99818235  0.04234300     0.75750
O2266       O  0.73307103  0.96632818  0.12666988    -0.58030
C2267       C  0.67060214  0.49813703  0.20777750     0.75720
C2268       C  0.64934883  0.91743415  0.12768829     0.78120
Cd2269     Cd  0.69402830  0.98344792  0.12497783     1.37470
O2270       O  0.68491589  0.51995842  0.07260323    -0.56870
O2271       O  0.65861801  0.93407232  0.16388521    -0.55680
C2272       C  0.75826536  0.99330605  0.12450953     0.78080
O2273       O  0.66476715  0.92989876  0.09141732    -0.58050
O2274       O  0.67008727  0.97186882  0.04986430    -0.56510
O2275       O  0.69847025  0.00092398  0.20638810    -0.56500
O2276       O  0.75470123  0.51809529  0.12185020    -0.55670
O2277       O  0.68067116  0.64282135  0.08018246    -0.56880
C2278       C  0.66985982  0.64962753  0.20666677     0.75750
O2279       O  0.72877617  0.74593225  0.13316765    -0.58030
C2280       C  0.67249375  0.65266712  0.04502522     0.75720
C2281       C  0.64420422  0.70788050  0.12814262     0.78120
Cd2282     Cd  0.69201827  0.69019648  0.12713083     1.37460
O2283       O  0.65657514  0.64033985  0.16803247    -0.56870
O2284       O  0.65514846  0.70352129  0.16513368    -0.55680
C2285       C  0.75469662  0.74504734  0.12893197     0.78080
O2286       O  0.65851134  0.70853741  0.09146734    -0.58050
O2287       O  0.69462498  0.67728675  0.20801479    -0.56510
O2288       O  0.67721735  0.68125277  0.04671735    -0.56500
O2289       O  0.75261260  0.71748177  0.12367281    -0.55670
O2290       O  0.51909570  0.64224258  0.17183574    -0.56880
C2291       C  0.53284974  0.64973982  0.04572619     0.75750
O2292       O  0.56745133  0.74739688  0.12194782    -0.58030
C2293       C  0.53435676  0.65402470  0.20886388     0.75720
C2294       C  0.61382117  0.70741490  0.12715480     0.78120
Cd2295     Cd  0.54923658  0.69123055  0.12536727     1.37460
O2296       O  0.51559526  0.64121039  0.08147840    -0.56870
O2297       O  0.59814024  0.70371170  0.16351916    -0.55680
C2298       C  0.54115889  0.74761232  0.12249889     0.78080
O2299       O  0.60036383  0.70665419  0.08964899    -0.58050
O2300       O  0.55660653  0.67794260  0.04652791    -0.56510
O2301       O  0.55451420  0.68369406  0.20750168    -0.56500
O2302       O  0.51587566  0.72035710  0.12406760    -0.55670
O2303       O  0.88817554  0.86869806  0.17724025    -0.56880
C2304       C  0.87784311  0.85694885  0.05096333     0.75750
O2305       O  0.78347198  0.80140642  0.13270933    -0.58030
C2306       C  0.87716920  0.85685944  0.21596516     0.75720
C2307       C  0.81878199  0.88518941  0.12524760     0.78120
Cd2308     Cd  0.83897649  0.83825894  0.13259097     1.37470
O2309       O  0.88715103  0.87197212  0.08854591    -0.56870
O2310       O  0.82606989  0.87410227  0.09079926    -0.55680
C2311       C  0.78484576  0.77549988  0.12999255     0.78080
O2312       O  0.81504016  0.87055106  0.16265661    -0.58050
O2313       O  0.85254053  0.82967630  0.05271739    -0.56510
O2314       O  0.84865954  0.83363234  0.21609069    -0.56500
O2315       O  0.81258892  0.77778589  0.12840237    -0.55670
O2316       O  0.53702977  0.87814540  0.07890221    -0.56880
C2317       C  0.53114119  0.86249960  0.20351468     0.75750
O2318       O  0.56917806  0.80408466  0.12115197    -0.58030
C2319       C  0.53293802  0.86426286  0.04059442     0.75720
C2320       C  0.61891106  0.88788187  0.12645754     0.78120
Cd2321     Cd  0.55244595  0.84354157  0.12212875     1.37460
O2322       O  0.53351717  0.87505126  0.16473512    -0.56870
O2323       O  0.60237003  0.87703113  0.16225856    -0.55680
C2324       C  0.54203779  0.77893197  0.12179779     0.78080
O2325       O  0.60582968  0.87500803  0.08893015    -0.58050
O2326       O  0.53454533  0.83757630  0.20410769    -0.56510
O2327       O  0.53675806  0.83957979  0.03982190    -0.56500
O2328       O  0.51739597  0.78279760  0.12214640    -0.55670
C2329       C  0.97058527  0.86070841  0.21695653    -0.04840
C2330       C  0.99535821  0.88051410  0.24772541     0.01080
C2331       C  0.98643502  0.89479778  0.28435477    -0.07490
C2332       C  0.95510477  0.89120723  0.28529914    -0.04860
C2333       C  0.93069833  0.87163732  0.25419208     0.01070
C2334       C  0.93825395  0.85288935  0.22280930    -0.07400
C2335       C  0.91388654  0.82131442  0.19982556     0.62980
H2336       H  0.97532337  0.84776535  0.19030402     0.13680
H2337       H  0.94915559  0.90334199  0.31207324     0.13690
C2338       C  0.50723319  0.91256885  0.32541914     0.63220
F2339       F  0.92587287  0.79989361  0.19731948    -0.21950
F2340       F  0.90770461  0.82711374  0.15573318    -0.19280
F2341       F  0.88564357  0.80547228  0.22411862    -0.18960
F2342       F  0.50670509  0.94124841  0.33188867    -0.19010
F2343       F  0.53897207  0.92061647  0.32297474    -0.19330
F2344       F  0.99454449  0.89285008  0.36297716    -0.22000
C2345       C  0.62112084  0.65665626  0.26096554    -0.04840
C2346       C  0.62107246  0.62730785  0.25215916     0.01080
C2347       C  0.59026169  0.59983484  0.24570900    -0.07490
C2348       C  0.56251198  0.60211504  0.25755092    -0.04860
C2349       C  0.56193829  0.63181269  0.25831578     0.01070
C2350       C  0.59324358  0.65994671  0.26486091    -0.07400
C2351       C  0.60142196  0.69418982  0.28020780     0.62980
H2352       H  0.64423921  0.67825278  0.26479360     0.13680
H2353       H  0.54098144  0.57964108  0.26334232     0.13690
C2354       C  0.58399725  0.56979107  0.21866643     0.63220
F2355       F  0.61713961  0.70052402  0.32187220    -0.21950
F2356       F  0.57626375  0.70030317  0.28595968    -0.19280
F2357       F  0.62226360  0.71633943  0.24900114    -0.18960
F2358       F  0.57596888  0.54413957  0.24771978    -0.19010
F2359       F  0.60923295  0.57437963  0.19074644    -0.19330
F2360       F  0.55857301  0.56155143  0.18948506    -0.22000
C2361       C  0.67080601  0.55728645  0.21817717    -0.04840
C2362       C  0.65221451  0.53344606  0.25084579     0.01080
C2363       C  0.63698081  0.54319294  0.28540756    -0.07490
C2364       C  0.63884784  0.57392976  0.28236998    -0.04860
C2365       C  0.65622014  0.59673046  0.24813541     0.01070
C2366       C  0.67610569  0.58913724  0.21920816    -0.07400
C2367       C  0.70575934  0.61360876  0.19273366     0.62980
H2368       H  0.68397590  0.55223734  0.19246124     0.13680
H2369       H  0.62629339  0.58043454  0.30776955     0.13690
C2370       C  0.61848413  0.52366921  0.32702904     0.63220
F2371       F  0.72714969  0.60216164  0.18444672    -0.21950
F2372       F  0.72296981  0.64184632  0.21705805    -0.19280
F2373       F  0.69687146  0.61977810  0.15084961    -0.18960
F2374       F  0.61619921  0.49378296  0.33064577    -0.19010
F2375       F  0.58751269  0.01913362  0.32586976    -0.19330
F2376       F  0.63338471  0.54089237  0.36623540    -0.22000
C2377       C  0.58735195  0.91076386  0.25805600    -0.04840
C2378       C  0.55931323  0.91209004  0.24642040     0.01080
C2379       C  0.56371957  0.94259889  0.23063598    -0.07490
C2380       C  0.59420654  0.97026577  0.23623496    -0.04860
C2381       C  0.62180164  0.96918861  0.25186718     0.01070
C2382       C  0.61823979  0.93765925  0.25968851    -0.07400
C2383       C  0.64458406  0.92900918  0.27098358     0.62980
H2384       H  0.58520470  0.88733862  0.26464725     0.13680
H2385       H  0.59672592  0.99323957  0.22611401     0.13690
C2386       C  0.53837518  0.94750116  0.20528729     0.63220
F2387       F  0.64248685  0.92114596  0.31681423    -0.21950
F2388       F  0.67539637  0.95263184  0.26171507    -0.19280
F2389       F  0.63989179  0.90220874  0.24586770    -0.18960
F2390       F  0.51848607  0.95141795  0.23602641    -0.19010
F2391       F  0.52040677  0.92220510  0.17600256    -0.19330
F2392       F  0.55249478  0.97491690  0.17836482    -0.22000
C2393       C  0.93853064  0.56511005  0.24876860    -0.04840
C2394       C  0.94047295  0.53654724  0.23982775     0.01080
C2395       C  0.97045879  0.54308784  0.21821310    -0.07490
C2396       C  0.99687330  0.57499177  0.21875157    -0.04860
C2397       C  0.99662825  0.60067804  0.24218896     0.01070
C2398       C  0.96474810  0.59669868  0.24535968    -0.07400
C2399       C  0.95448607  0.62166677  0.23220980     0.62980
H2400       H  0.91501301  0.56298244  0.25371869     0.13680
H2401       H  0.51817582  0.58066546  0.19922322     0.13690
C2402       C  0.97531941  0.51927175  0.18976809     0.63220
F2403       F  0.93687005  0.61141471  0.19212936    -0.21950
F2404       F  0.97900993  0.65233600  0.22422348    -0.19280
F2405       F  0.93463476  0.62342823  0.26527373    -0.18960
F2406       F  0.95052446  0.50507842  0.15974396    -0.19010
F2407       F  0.97827467  0.49749466  0.21764460    -0.19330
F2408       F  0.00240284  0.53340676  0.16257971    -0.22000
C2409       C  0.88513955  0.94633902  0.28290747    -0.04840
C2410       C  0.90602362  0.96912280  0.24999566     0.01080
C2411       C  0.91765791  0.95450589  0.21744462    -0.07490
C2412       C  0.92413316  0.93024561  0.23411598    -0.04860
C2413       C  0.90107673  0.90579387  0.26246432     0.01070
C2414       C  0.87813792  0.91366711  0.28298822    -0.07400
C2415       C  0.84448502  0.89009487  0.30036475     0.62980
H2416       H  0.86993512  0.95185004  0.30439633     0.13680
H2417       H  0.93950880  0.92431538  0.21347310     0.13690
C2418       C  0.90288462  0.94436349  0.16991144     0.63220
F2419       F  0.84435871  0.89062473  0.34757067    -0.21950
F2420       F  0.83283332  0.85889231  0.28518551    -0.19280
F2421       F  0.82281198  0.89956831  0.28501519    -0.18960
F2422       F  0.92305642  0.93885568  0.14153469    -0.19010
F2423       F  0.89582550  0.46569111  0.14840588    -0.19330
F2424       F  0.87458188  0.91604645  0.17416331    -0.22000
C2425       C  0.93727720  0.85697545  0.03450737    -0.04840
C2426       C  0.93061526  0.87658672  0.00534811     0.01080
C2427       C  0.95452271  0.89458075  0.47136552    -0.07490
C2428       C  0.98364844  0.89306515  0.47069758    -0.04860
C2429       C  0.99124082  0.87548752  0.00245523     0.01070
C2430       C  0.96524450  0.85390686  0.03184135    -0.07400
C2431       C  0.96338289  0.82485529  0.05755020     0.62980
H2432       H  0.91926645  0.84195298  0.05885307     0.13680
H2433       H  0.00198667  0.90726462  0.44597304     0.13690
C2434       C  0.95249725  0.91855970  0.43840252     0.63220
F2435       F  0.93204611  0.80245608  0.06871363    -0.21950
F2436       F  0.98016890  0.83449668  0.09817135    -0.19280
F2437       F  0.97445912  0.80825819  0.03089903    -0.18960
F2438       F  0.96377031  0.94824054  0.95915939    -0.19010
F2439       F  0.92214212  0.90859286  0.42193937    -0.19330
F2440       F  0.97137847  0.92342262  0.40075602    -0.22000
C2441       C  0.60026287  0.61554269  0.03922035    -0.04840
C2442       C  0.62167909  0.62905094  0.50200526     0.01080
C2443       C  0.61157930  0.64415817  0.46808513    -0.07490
C2444       C  0.57900309  0.63591654  0.46553707    -0.04860
C2445       C  0.55740211  0.62263570  0.50251078     0.01070
C2446       C  0.56858318  0.61126164  0.04011056    -0.07400
C2447       C  0.54959548  0.59499563  0.08311835     0.62980
H2448       H  0.60871661  0.60843114  0.06908577     0.13680
H2449       H  0.57219799  0.64434723  0.43570611     0.13690
C2450       C  0.63413770  0.67515616  0.44239881     0.63220
F2451       F  0.55128761  0.56706434  0.09073844    -0.21950
F2452       F  0.51755006  0.58620782  0.08115921    -0.19280
F2453       F  0.56316425  0.61552889  0.12008909    -0.18960
F2454       F  0.64391537  0.66807728  0.40166536    -0.19010
F2455       F  0.66031703  0.69521268  0.46879497    -0.19330
F2456       F  0.61914164  0.69314328  0.43194712    -0.22000
C2457       C  0.62891045  0.56875833  0.02236910    -0.04840
C2458       C  0.65674699  0.59809580  0.01078969     0.01080
C2459       C  0.68588009  0.59563916  0.50715225    -0.07490
C2460       C  0.68309154  0.56474567  0.50134194    -0.04860
C2461       C  0.65397108  0.53571855  0.00749083     0.01070
C2462       C  0.63051217  0.54029447  0.03143220    -0.07400
C2463       C  0.61937858  0.52591594  0.07877844     0.62980
H2464       H  0.60637727  0.56776895  0.02973613     0.13680
H2465       H  0.70487044  0.56337529  0.49575717     0.13690
C2466       C  0.72070291  0.62260408  0.51310723     0.63220
F2467       F  0.64403061  0.54290030  0.10949585    -0.21950
F2468       F  0.61144758  0.49382564  0.08088011    -0.19280
F2469       F  0.59310769  0.52882010  0.09288134    -0.18960
F2470       F  0.72505636  0.65330529  0.01705062    -0.19010
F2471       F  0.73940435  0.62253130  0.47696411    -0.19330
F2472       F  0.73286767  0.61644598  0.55242229    -0.22000
C2473       C  0.59100478  0.97169058  0.49350640    -0.04840
C2474       C  0.62028572  0.97060234  0.99238067     0.01080
C2475       C  0.61645551  0.93874649  0.98443131    -0.07490
C2476       C  0.58536694  0.91169669  0.98550309    -0.04860
C2477       C  0.55662700  0.91267772  0.99456194     0.01070
C2478       C  0.56052496  0.94430701  0.50191649    -0.07400
C2479       C  0.53568053  0.95180964  0.52335908     0.62980
H2480       H  0.59129840  0.99436514  0.49076344     0.13680
H2481       H  0.58355276  0.88817758  0.98039788     0.13690
C2482       C  0.64201392  0.92902444  0.97194970     0.63220
F2483       F  0.55041674  0.97925386  0.05010569    -0.21950
F2484       F  0.51490989  0.92780008  0.05228722    -0.19280
F2485       F  0.51927070  0.95788820  0.48953999    -0.18960
F2486       F  0.64054760  0.90643116  0.00301249    -0.19010
F2487       F  0.67334212  0.95309110  0.47063511    -0.19330
F2488       F  0.63492487  0.91470978  0.42905733    -0.22000
C2489       C  0.99202054  0.56985068  0.97771624    -0.04840
C2490       C  0.99430782  0.59563126  0.00495592     0.01080
C2491       C  0.96450157  0.59195419  0.52220168    -0.07490
C2492       C  0.93809432  0.56076819  0.52482092    -0.04860
C2493       C  0.93621116  0.53405551  0.00027442     0.01070
C2494       C  0.96290104  0.54087607  0.97080090    -0.07400
C2495       C  0.96283296  0.52089294  0.92961981     0.62980
H2496       H  0.01281043  0.57350537  0.95795297     0.13680
H2497       H  0.91697512  0.55860243  0.54198742     0.13690
C2498       C  0.95646112  0.61874091  0.53383638     0.63220
F2499       F  0.96641896  0.53855324  0.89042609    -0.21950
F2500       F  0.93542149  0.99170877  0.42469282    -0.19280
F2501       F  0.98854283  0.51498985  0.93213915    -0.18960
F2502       F  0.92810991  0.61236435  0.51218697    -0.19010
F2503       F  0.97909764  0.64900365  0.01975796    -0.19330
F2504       F  0.95182708  0.61925843  0.08050837    -0.22000
C2505       C  0.87502603  0.94219207  0.48927531    -0.04840
C2506       C  0.90392158  0.96982610  0.50237719     0.01080
C2507       C  0.92684249  0.96395468  0.02661552    -0.07490
C2508       C  0.92190372  0.93207061  0.02778141    -0.04860
C2509       C  0.89577318  0.90557506  0.50634525     0.01070
C2510       C  0.86963301  0.91046054  0.49268540    -0.07400
C2511       C  0.83491227  0.88459842  0.48335502     0.62980
H2512       H  0.85484198  0.94517630  0.47877130     0.13680
H2513       H  0.93970708  0.92783268  0.04457182     0.13690
C2514       C  0.95732093  0.98951439  0.05048385     0.63220
F2515       F  0.81411066  0.89204186  0.50705598    -0.21950
F2516       F  0.82763832  0.85398776  0.99641129    -0.19280
F2517       F  0.82839564  0.88426448  0.43729666    -0.18960
F2518       F  0.95262438  0.01254771  0.07262025    -0.19010
F2519       F  0.98194579  0.50408936  0.51937742    -0.19330
F2520       F  0.96792219  0.97597035  0.08335821    -0.22000
C2521       C  0.90312305  0.00234946  0.50012644    -0.01550
C2522       C  0.65394937  0.50254707  0.50010580    -0.01550
C2523       C  0.65590473  0.63089267  0.50432710    -0.01550
C2524       C  0.52692781  0.62776884  0.50423900    -0.01550
C2525       C  0.52553231  0.87815991  0.49846762    -0.01550
C2526       C  0.89570943  0.87265160  0.50661514    -0.01550
O2527       O  0.54317033  0.86729056  0.82256259    -0.56880
C2528       C  0.52311951  0.85821584  0.95545047     0.75750
O2529       O  0.95601587  0.80174252  0.83845952    -0.58030
C2530       C  0.52419727  0.85783511  0.78848815     0.75720
C2531       C  0.51691051  0.76295825  0.87508014     0.78120
Cd2532     Cd  0.50909488  0.81975820  0.87195866     1.37470
O2533       O  0.53895308  0.87033116  0.91896687    -0.56870
O2534       O  0.54213877  0.79027343  0.87396321    -0.55680
C2535       C  0.94367869  0.80301050  0.87625028     0.78080
O2536       O  0.99058580  0.76309693  0.87375299    -0.58050
O2537       O  0.50349852  0.82838987  0.95351013    -0.56510
O2538       O  0.00032975  0.82980725  0.79197600    -0.56500
O2539       O  0.96096786  0.80983304  0.91151175    -0.55670
O2540       O  0.53576836  0.64532558  0.83357592    -0.56880
C2541       C  0.52396728  0.64448016  0.96115839     0.75750
O2542       O  0.98947611  0.70654679  0.88282609    -0.58030
C2543       C  0.52412194  0.64750939  0.79555300     0.75720
C2544       C  0.94159008  0.62013411  0.87961877     0.78120
Cd2545     Cd  0.50694874  0.66723518  0.88023361     1.37460
O2546       O  0.51610726  0.62936623  0.92352957    -0.56870
O2547       O  0.95845097  0.63059931  0.84426486    -0.55680
C2548       C  0.51628704  0.73174502  0.87788794     0.78080
O2549       O  0.95362155  0.63471944  0.91677238    -0.58050
O2550       O  0.52788275  0.67294027  0.96041097    -0.56510
O2551       O  0.50824156  0.66241825  0.79694151    -0.56500
O2552       O  0.54095725  0.72803164  0.87516985    -0.55670
O2553       O  0.86875891  0.85903087  0.93112865    -0.56880
C2554       C  0.88226561  0.85113085  0.80157314     0.75750
O2555       O  0.89566340  0.79693272  0.84369271    -0.58030
C2556       C  0.87914475  0.85069339  0.96560376     0.75720
C2557       C  0.79656404  0.75725416  0.88476194     0.78120
Cd2558     Cd  0.86010277  0.81243267  0.88339596     1.37470
O2559       O  0.88388292  0.86387973  0.84040514    -0.56870
O2560       O  0.79946431  0.78491185  0.87777801    -0.55680
C2561       C  0.91226310  0.80046218  0.87901413     0.78080
O2562       O  0.82207769  0.75614439  0.89226218    -0.58050
O2563       O  0.86850415  0.82065938  0.80078622    -0.56510
O2564       O  0.87699254  0.82305047  0.96325258    -0.56500
O2565       O  0.90205253  0.80505727  0.91666231    -0.55670
O2566       O  0.90564702  0.01277074  0.82851234    -0.56880
C2567       C  0.88634628  0.50580988  0.95732174     0.75750
O2568       O  0.89758128  0.57514249  0.91337792    -0.58030
C2569       C  0.89188530  0.50834647  0.79008852     0.75720
C2570       C  0.80163876  0.51413744  0.87371649     0.78120
Cd2571     Cd  0.86660087  0.52341960  0.87364607     1.37470
O2572       O  0.87832327  0.98721102  0.92257800    -0.56870
O2573       O  0.80524836  0.98935994  0.87676772    -0.55680
C2574       C  0.91198473  0.58975077  0.87758118     0.78080
O2575       O  0.82696357  0.54087020  0.86971980    -0.58050
O2576       O  0.88153707  0.52966274  0.95400911    -0.56510
O2577       O  0.86528253  0.50852515  0.79089151    -0.56500
O2578       O  0.90226538  0.57490857  0.83998725    -0.55670
O2579       O  0.66697944  0.98658020  0.82695978    -0.56880
C2580       C  0.67411723  0.50672104  0.95714651     0.75750
O2581       O  0.77052171  0.54033834  0.87753497    -0.58030
C2582       C  0.67580747  0.50554357  0.79298811     0.75720
C2583       C  0.72903228  0.58662398  0.87657904     0.78120
Cd2584     Cd  0.71393080  0.52196076  0.87496231     1.37470
O2585       O  0.66237406  0.00306771  0.91738276    -0.56870
O2586       O  0.71839612  0.56829017  0.91059827    -0.55680
C2587       C  0.77049721  0.51377851  0.87506391     0.78080
O2588       O  0.73753463  0.57659042  0.84195726    -0.58050
O2589       O  0.70375065  0.51473467  0.95885343    -0.56510
O2590       O  0.70350970  0.52982396  0.79578780    -0.56500
O2591       O  0.74312816  0.98855554  0.87352918    -0.55670
O2592       O  0.66459965  0.62814805  0.92324378    -0.56880
C2593       C  0.67508992  0.64661600  0.79122114     0.75750
O2594       O  0.76580931  0.70077044  0.89012755    -0.58030
C2595       C  0.67390292  0.64453027  0.95977302     0.75720
C2596       C  0.72677073  0.61575963  0.87633727     0.78120
Cd2597     Cd  0.71025116  0.66480153  0.87542933     1.37470
O2598       O  0.66378604  0.65386591  0.82590239    -0.56870
O2599       O  0.70726843  0.61775829  0.90340859    -0.55680
C2600       C  0.76592556  0.72708851  0.88303134     0.78080
O2601       O  0.74141740  0.63846099  0.84824915    -0.58050
O2602       O  0.70378841  0.65234809  0.79463684    -0.56510
O2603       O  0.69891798  0.67192533  0.95647070    -0.56500
O2604       O  0.73916562  0.72547279  0.87326853    -0.55670
C2605       C  0.90705732  0.50345870  0.74559963    -0.01550
C2606       C  0.65464258  0.50127004  0.75156157    -0.01500
C2607       C  0.65515371  0.62935393  0.74897388    -0.01550
C2608       C  0.52926522  0.63324253  0.75133374    -0.01550
C2609       C  0.52743295  0.87892718  0.74660575    -0.01550
C2610       C  0.89753208  0.87105384  0.75880914    -0.01550
O2611       O  0.89280236  0.52028495  0.67327486    -0.56880
C2612       C  0.88300821  0.00005294  0.54246926     0.75750
O2613       O  0.81956161  0.93088258  0.65946009    -0.58030
C2614       C  0.88461379  0.00060597  0.70642356     0.75720
C2615       C  0.78921953  0.99379648  0.62481662     0.78120
Cd2616     Cd  0.84432870  0.98463874  0.62517755     1.37460
O2617       O  0.89374710  0.50081310  0.58209983    -0.56870
O2618       O  0.81652368  0.51899049  0.62745646    -0.55680
C2619       C  0.82164987  0.91705333  0.62361880     0.78080
O2620       O  0.78893789  0.96716719  0.62280099    -0.58050
O2621       O  0.85446316  0.99541279  0.54070008    -0.56510
O2622       O  0.85654540  0.97678604  0.70422130    -0.56500
O2623       O  0.83148452  0.93386686  0.58780330    -0.55670
O2624       O  0.65596921  0.49248522  0.66992276    -0.56880
C2625       C  0.67058605  0.99818688  0.54233296     0.75750
O2626       O  0.73308282  0.96633207  0.62664526    -0.58030
C2627       C  0.67060212  0.49813672  0.70777771     0.75720
C2628       C  0.64935951  0.91743821  0.62767776     0.78120
Cd2629     Cd  0.69404032  0.98345198  0.62496363     1.37470
O2630       O  0.68491387  0.51995761  0.57260601    -0.56870
O2631       O  0.65863058  0.93407722  0.66387363    -0.55680
C2632       C  0.75827727  0.99331018  0.62449187     0.78080
O2633       O  0.66477568  0.92990221  0.59140526    -0.58050
O2634       O  0.67010759  0.97187808  0.54984235    -0.56510
O2635       O  0.69848492  0.00092504  0.70637754    -0.56500
O2636       O  0.75470171  0.51809562  0.62185137    -0.55670
O2637       O  0.68067249  0.64282090  0.58018226    -0.56880
C2638       C  0.66985971  0.64962677  0.70666764     0.75750
O2639       O  0.72877735  0.74593076  0.63316775    -0.58030
C2640       C  0.67249552  0.65266720  0.54502513     0.75720
C2641       C  0.64420581  0.70787978  0.62814315     0.78120
Cd2642     Cd  0.69201924  0.69019531  0.62713162     1.37460
O2643       O  0.65657520  0.64033891  0.66803324    -0.56870
O2644       O  0.65514986  0.70352041  0.66513426    -0.55680
C2645       C  0.75469757  0.74504516  0.62893420     0.78080
O2646       O  0.65851301  0.70853683  0.59146790    -0.58050
O2647       O  0.69462503  0.67728587  0.70801562    -0.56510
O2648       O  0.67721930  0.68125290  0.54671778    -0.56500
O2649       O  0.75261318  0.71747934  0.62367649    -0.55670
O2650       O  0.51909662  0.64224367  0.67183669    -0.56880
C2651       C  0.53285166  0.64974066  0.54572641     0.75750
O2652       O  0.56745655  0.74739798  0.62195090    -0.58030
C2653       C  0.53435779  0.65402570  0.70886478     0.75720
C2654       C  0.61382287  0.70741424  0.62715529     0.78120
Cd2655     Cd  0.54923887  0.69123131  0.62536773     1.37460
O2656       O  0.51559732  0.64121134  0.58147876    -0.56870
O2657       O  0.59814170  0.70371037  0.66351956    -0.55680
C2658       C  0.54116489  0.74761498  0.62250013     0.78080
O2659       O  0.60036590  0.70665434  0.58964949    -0.58050
O2660       O  0.55660844  0.67794345  0.54652792    -0.56510
O2661       O  0.55451583  0.68369486  0.70750224    -0.56500
O2662       O  0.51588063  0.72036047  0.62406659    -0.55670
O2663       O  0.88818371  0.86867526  0.67723715    -0.56880
C2664       C  0.87784265  0.85694721  0.55096381     0.75750
O2665       O  0.78347384  0.80140417  0.63270957    -0.58030
C2666       C  0.87716966  0.85685049  0.71596581     0.75720
C2667       C  0.81879111  0.88519205  0.62526305     0.78120
Cd2668     Cd  0.83897864  0.83825545  0.63259419     1.37470
O2669       O  0.88715093  0.87197197  0.58854540    -0.56870
O2670       O  0.82606151  0.87409434  0.59080925    -0.55680
C2671       C  0.78484695  0.77549723  0.62999537     0.78080
O2672       O  0.81506385  0.87056255  0.66267647    -0.58050
O2673       O  0.85254096  0.82967408  0.55271969    -0.56510
O2674       O  0.84865399  0.83363488  0.71609511    -0.56500
O2675       O  0.81258978  0.77778241  0.62840823    -0.55670
O2676       O  0.53704357  0.87815085  0.57890044    -0.56880
C2677       C  0.53115259  0.86250585  0.70351191     0.75750
O2678       O  0.56918682  0.80408731  0.62115607    -0.58030
C2679       C  0.53294885  0.86426578  0.54059422     0.75720
C2680       C  0.61892209  0.88788546  0.62645034     0.78120
Cd2681     Cd  0.55245697  0.84354584  0.62212793     1.37460
O2682       O  0.53353060  0.87505787  0.66473213    -0.56870
O2683       O  0.60238267  0.87703582  0.66225298    -0.55680
C2684       C  0.54204576  0.77893547  0.62179914     0.78080
O2685       O  0.60583932  0.87501005  0.58892434    -0.58050
O2686       O  0.53455481  0.83758144  0.70410613    -0.56510
O2687       O  0.53676632  0.83958115  0.53982331    -0.56500
O2688       O  0.51740484  0.78280257  0.62214472    -0.55670
C2689       C  0.97058382  0.86070302  0.71696252    -0.04840
C2690       C  0.99535733  0.88051176  0.74772872     0.01080
C2691       C  0.98643347  0.89479573  0.78435719    -0.07490
C2692       C  0.95510307  0.89120445  0.78530129    -0.04860
C2693       C  0.93069625  0.87163061  0.75419799     0.01070
C2694       C  0.93825200  0.85288020  0.72282024    -0.07400
C2695       C  0.91388690  0.82129952  0.69984729     0.62980
H2696       H  0.97532102  0.84775738  0.69031253     0.13680
H2697       H  0.94915406  0.90334105  0.81207310     0.13690
C2698       C  0.50725174  0.91257437  0.82542191     0.63220
F2699       F  0.92587152  0.79987608  0.69738007    -0.21950
F2700       F  0.90771845  0.82708717  0.65574117    -0.19280
F2701       F  0.88563643  0.80546634  0.72412530    -0.18960
F2702       F  0.50670835  0.94124391  0.83192150    -0.19010
F2703       F  0.53899494  0.92064162  0.82295596    -0.19330
F2704       F  0.99453572  0.89285456  0.86298185    -0.22000
C2705       C  0.62112116  0.65665636  0.76096603    -0.04840
C2706       C  0.62107233  0.62730765  0.75216021     0.01080
C2707       C  0.59026128  0.59983470  0.74571126    -0.07490
C2708       C  0.56251191  0.60211553  0.75755320    -0.04860
C2709       C  0.56193869  0.63181343  0.75831744     0.01070
C2710       C  0.59324418  0.65994724  0.76486185    -0.07400
C2711       C  0.60142303  0.69419054  0.78020845     0.62980
H2712       H  0.64423969  0.67825277  0.76479346     0.13680
H2713       H  0.54098115  0.57964185  0.76334507     0.13690
C2714       C  0.58399619  0.56979021  0.71867005     0.63220
F2715       F  0.61714087  0.70052476  0.82187270    -0.21950
F2716       F  0.57626506  0.70030425  0.78596045    -0.19280
F2717       F  0.62226468  0.71633989  0.74900153    -0.18960
F2718       F  0.57596899  0.54413962  0.74772465    -0.19010
F2719       F  0.60923121  0.57437837  0.69074880    -0.19330
F2720       F  0.55857084  0.56154925  0.68949025    -0.22000
C2721       C  0.67080478  0.55728559  0.71817674    -0.04840
C2722       C  0.65221394  0.53344540  0.75084594     0.01080
C2723       C  0.63698070  0.54319239  0.78540831    -0.07490
C2724       C  0.63884792  0.57392933  0.78237119    -0.04860
C2725       C  0.65621984  0.59672993  0.74813636     0.01070
C2726       C  0.67610493  0.58913652  0.71920844    -0.07400
C2727       C  0.70575908  0.61360797  0.69273472     0.62980
H2728       H  0.68397406  0.55223637  0.69245995     0.13680
H2729       H  0.62629386  0.58043424  0.80777124     0.13690
C2730       C  0.61848438  0.52366866  0.82703002     0.63220
F2731       F  0.72714926  0.60216051  0.68444861    -0.21950
F2732       F  0.72296947  0.64184537  0.71705945    -0.19280
F2733       F  0.69687194  0.61977764  0.65085033    -0.18960
F2734       F  0.61619884  0.49378211  0.83064590    -0.19010
F2735       F  0.58751853  0.01912531  0.82584612    -0.19330
F2736       F  0.63338573  0.54089152  0.86623622    -0.22000
C2737       C  0.58736487  0.91076830  0.75805008    -0.04840
C2738       C  0.55932729  0.91209632  0.74641361     0.01080
C2739       C  0.56373542  0.94260497  0.73062459    -0.07490
C2740       C  0.59422357  0.97027052  0.73621899    -0.04860
C2741       C  0.62181722  0.96919206  0.75185361     0.01070
C2742       C  0.61825369  0.93766225  0.75967772    -0.07400
C2743       C  0.64459695  0.92901000  0.77096946     0.62980
H2744       H  0.58521588  0.88734278  0.76464547     0.13680
H2745       H  0.59674490  0.99324453  0.72609514     0.13690
C2746       C  0.53838975  0.94750850  0.70528200     0.63220
F2747       F  0.64250010  0.92114465  0.81679925    -0.21950
F2748       F  0.67540962  0.95263210  0.76170126    -0.19280
F2749       F  0.63990270  0.90221004  0.74585072    -0.18960
F2750       F  0.51850009  0.95142022  0.73602598    -0.19010
F2751       F  0.52042261  0.92221503  0.67599267    -0.19330
F2752       F  0.55250702  0.97492748  0.67836584    -0.22000
C2753       C  0.93853171  0.56511036  0.74876881    -0.04840
C2754       C  0.94047393  0.53654744  0.73982847     0.01080
C2755       C  0.97045962  0.54308777  0.71821356    -0.07490
C2756       C  0.99687409  0.57499175  0.71875083    -0.04860
C2757       C  0.99662928  0.60067823  0.74218782     0.01070
C2758       C  0.96474920  0.59669895  0.74535901    -0.07400
C2759       C  0.95448729  0.62166696  0.73220828     0.62980
H2760       H  0.91501414  0.56298284  0.75371913     0.13680
H2761       H  0.51817665  0.58066688  0.69922410     0.13690
C2762       C  0.97532033  0.51927104  0.68977028     0.63220
F2763       F  0.93687146  0.61141462  0.69212771    -0.21950
F2764       F  0.97901129  0.65233608  0.72422177    -0.19280
F2765       F  0.93463587  0.62342875  0.76527173    -0.18960
F2766       F  0.95052513  0.50507646  0.65974685    -0.19010
F2767       F  0.97827614  0.49749501  0.71764843    -0.19330
F2768       F  0.00240343  0.53340548  0.66258126    -0.22000
C2769       C  0.88513927  0.94633575  0.78289874    -0.04840
C2770       C  0.90602243  0.96911942  0.74998624     0.01080
C2771       C  0.91765891  0.95450167  0.71743807    -0.07490
C2772       C  0.92412949  0.93023721  0.73410568    -0.04860
C2773       C  0.90107444  0.90578830  0.76245822     0.01070
C2774       C  0.87813712  0.91366362  0.78298178    -0.07400
C2775       C  0.84448579  0.89009325  0.80036574     0.62980
H2776       H  0.86993550  0.95184699  0.80438851     0.13680
H2777       H  0.93950039  0.92430227  0.71345950     0.13690
C2778       C  0.90291740  0.94438093  0.66988379     0.63220
F2779       F  0.84436429  0.89062736  0.84757157    -0.21950
F2780       F  0.83283186  0.85888933  0.78519168    -0.19280
F2781       F  0.82281160  0.89956585  0.78501850    -0.18960
F2782       F  0.92313243  0.93893428  0.64151414    -0.19010
F2783       F  0.89582613  0.46569027  0.64840692    -0.19330
F2784       F  0.87463703  0.91603494  0.67407535    -0.22000
C2785       C  0.93727480  0.85697030  0.53450276    -0.04840
C2786       C  0.93061205  0.87658117  0.50534421     0.01080
C2787       C  0.95452641  0.89458519  0.97136892    -0.07490
C2788       C  0.98364885  0.89306345  0.97069636    -0.04860
C2789       C  0.99124077  0.87548794  0.50245460     0.01070
C2790       C  0.96524357  0.85390420  0.53183764    -0.07400
C2791       C  0.96338343  0.82485317  0.55754650     0.62980
H2792       H  0.91926367  0.84194663  0.55884732     0.13680
H2793       H  0.00198745  0.90726019  0.94597110     0.13690
C2794       C  0.95250317  0.91856751  0.93841024     0.63220
F2795       F  0.93204699  0.80245255  0.56870917    -0.21950
F2796       F  0.98016875  0.83449505  0.59816819    -0.19280
F2797       F  0.97446126  0.80825730  0.53089577    -0.18960
F2798       F  0.96379525  0.94824350  0.45913215    -0.19010
F2799       F  0.92215277  0.90858434  0.92191396    -0.19330
F2800       F  0.97141260  0.92346264  0.90078592    -0.22000
C2801       C  0.60026491  0.61554368  0.53922088    -0.04840
C2802       C  0.62167730  0.62905027  0.00200507     0.01080
C2803       C  0.61157763  0.64415770  0.96808499    -0.07490
C2804       C  0.57900145  0.63591630  0.96553689    -0.04860
C2805       C  0.55740028  0.62263513  0.00251028     0.01070
C2806       C  0.56858527  0.61126273  0.54011136    -0.07400
C2807       C  0.54959801  0.59499785  0.58311992     0.62980
H2808       H  0.60871881  0.60843222  0.56908624     0.13680
H2809       H  0.57219640  0.64434716  0.93570607     0.13690
C2810       C  0.63413615  0.67515543  0.94239822     0.63220
F2811       F  0.55129133  0.56706748  0.59074284    -0.21950
F2812       F  0.51755228  0.58620875  0.58116008    -0.19280
F2813       F  0.56316628  0.61553264  0.62008928    -0.18960
F2814       F  0.64391399  0.66807614  0.90166526    -0.19010
F2815       F  0.66031534  0.69521220  0.96879442    -0.19330
F2816       F  0.61914020  0.69314249  0.93194553    -0.22000
C2817       C  0.62891161  0.56875883  0.52236814    -0.04840
C2818       C  0.65674837  0.59809615  0.51078899     0.01080
C2819       C  0.68587882  0.59563902  0.00715254    -0.07490
C2820       C  0.68309045  0.56474563  0.00134165    -0.04860
C2821       C  0.65397200  0.53571874  0.50749101     0.01070
C2822       C  0.63051307  0.54029493  0.53143183    -0.07400
C2823       C  0.61937959  0.52591709  0.57877844     0.62980
H2824       H  0.60637854  0.56776966  0.52973476     0.13680
H2825       H  0.70486944  0.56337546  0.99575655     0.13690
C2826       C  0.72070156  0.62260405  0.01310775     0.63220
F2827       F  0.64403148  0.54290223  0.60949572    -0.21950
F2828       F  0.61144907  0.49382696  0.58088129    -0.19280
F2829       F  0.59310845  0.52882105  0.59288059    -0.18960
F2830       F  0.72505791  0.65330543  0.51704959    -0.19010
F2831       F  0.73940312  0.62253167  0.97696453    -0.19330
F2832       F  0.73286636  0.61644577  0.05242262    -0.22000
C2833       C  0.59099863  0.97168738  0.99352249    -0.04840
C2834       C  0.62029206  0.97060612  0.49237059     0.01080
C2835       C  0.61646268  0.93875053  0.48442286    -0.07490
C2836       C  0.58537494  0.91169988  0.48550019    -0.04860
C2837       C  0.55663454  0.91268020  0.49455651     0.01070
C2838       C  0.56051941  0.94430353  0.00193365    -0.07400
C2839       C  0.53567838  0.95180375  0.02339227     0.62980
H2840       H  0.59129162  0.99436193  0.99078740     0.13680
H2841       H  0.58356167  0.88818079  0.48039915     0.13690
C2842       C  0.64202058  0.92902922  0.47193603     0.63220
F2843       F  0.55041547  0.97926864  0.55005552    -0.21950
F2844       F  0.51491562  0.92781336  0.55226662    -0.19280
F2845       F  0.51927215  0.95789589  0.98958388    -0.18960
F2846       F  0.64056166  0.90644142  0.50300291    -0.19010
F2847       F  0.67333691  0.95308464  0.97066247    -0.19330
F2848       F  0.63492473  0.91471135  0.92906678    -0.22000
C2849       C  0.99202214  0.56985196  0.47771839    -0.04840
C2850       C  0.99430945  0.59563292  0.50495721     0.01080
C2851       C  0.96449994  0.59195220  0.02220078    -0.07490
C2852       C  0.93809301  0.56076606  0.02482027    -0.04860
C2853       C  0.93621242  0.53405740  0.50027577     0.01070
C2854       C  0.96290258  0.54087740  0.47080316    -0.07400
C2855       C  0.96283494  0.52089363  0.42962316     0.62980
H2856       H  0.01281209  0.57350627  0.45795562     0.13680
H2857       H  0.91697391  0.55860014  0.04198724     0.13690
C2858       C  0.95645904  0.61873867  0.03383508     0.63220
F2859       F  0.96642292  0.53855392  0.39042875    -0.21950
F2860       F  0.93541808  0.99170169  0.92471594    -0.19280
F2861       F  0.98854390  0.51498929  0.43214534    -0.18960
F2862       F  0.92810774  0.61236164  0.01218552    -0.19010
F2863       F  0.97909996  0.64900584  0.51975952    -0.19330
F2864       F  0.95182926  0.61926051  0.58050971    -0.22000
C2865       C  0.87502008  0.94219077  0.98928291    -0.04840
C2866       C  0.90391249  0.96982453  0.00239475     0.01080
C2867       C  0.92685570  0.96395725  0.52658889    -0.07490
C2868       C  0.92191268  0.93207186  0.52776400    -0.04860
C2869       C  0.89577179  0.90557641  0.00634584     0.01070
C2870       C  0.86963037  0.91045995  0.99268502    -0.07400
C2871       C  0.83491092  0.88459654  0.98334896     0.62980
H2872       H  0.85483596  0.94517416  0.97877669     0.13680
H2873       H  0.93971701  0.92783383  0.54455069     0.13690
C2874       C  0.95734094  0.98952000  0.55044047     0.63220
F2875       F  0.81410599  0.89203669  0.00704740    -0.21950
F2876       F  0.82763865  0.85398968  0.49641912    -0.19280
F2877       F  0.82839742  0.88426449  0.93728986    -0.18960
F2878       F  0.95264390  0.01254673  0.57259611    -0.19010
F2879       F  0.98194609  0.50408814  0.01936978    -0.19330
F2880       F  0.96796257  0.97598076  0.58329368    -0.22000
loop_ 
_geom_bond_atom_site_label_1 
_geom_bond_atom_site_label_2 
_geom_bond_distance 
_geom_bond_site_symmetry_2 
_ccdc_geom_bond_type 
C1           C92   1.534       .  S
C1         C1127   1.538   1_554  S
C1         C1053   1.563       .  S
C1          C706   1.562       .  S
C2          C301   1.585       .  S
C2          C420   1.532   1_554  S
C2          C825   1.537   1_545  S
C2         C1034   1.598   1_544  S
C3          C120   1.518       .  S
C3          C298   1.587       .  S
C3          C435   1.521   1_554  S
C3          C642   1.590       .  S
C4          C131   1.529       .  S
C4          C381   1.534   1_554  S
C4          C645   1.583       .  S
C4         C1770   1.561   1_455  S
C5          C159   1.521   1_556  S
C5          C317   1.591       .  S
C5          C368   1.540       .  S
C5         C1709   1.578   1_456  S
C6          C144   1.532       .  S
C6          C266   1.579       .  S
C6          C396   1.529   1_554  S
C6          C709   1.559       .  S
O7           C10   1.271       .  A
O7          Cd12   2.503       .  S
C8          C365   1.540       .  S
C8           O17   1.262       .  A
C8           O13   1.272       .  A
O9           C15   1.264       .  A
O9        Cd1452   2.446       .  S
C10          C89   1.545       .  S
C10        O1458   1.265       .  A
C11          O14   1.269       .  A
C11        O1456   1.257   1_455  A
C11          C28   1.468       .  S
Cd12         O17   2.452       .  S
Cd12         O13   2.514       .  S
Cd12         O14   2.562       .  S
Cd12       O1449   2.446   1_455  S
Cd12       O1459   2.397   1_455  S
Cd12       O1458   2.466       .  S
Cd12       O1456   2.387   1_455  S
C15          O19   1.260       .  A
C15          C41   1.442       .  S
O16        C1451   1.257       .  A
O16       Cd1452   2.387       .  S
O18        C1450   1.265       .  A
O18       Cd1452   2.466       .  S
O19       Cd1452   2.397       .  S
O20          C23   1.271       .  A
O20         Cd25   2.485       .  S
C21         C364   1.534       .  S
C21          O30   1.269       .  A
C21          O26   1.264       .  A
O22        C1468   1.264       .  A
O22       Cd1465   2.382       .  S
C23          C88   1.529       .  S
C23          O31   1.261       .  A
C24          O29   1.264       .  A
C24          O27   1.254       .  A
C24          C54   1.447       .  S
Cd25         O32   2.534       .  S
Cd25         O31   2.448       .  S
Cd25         O30   2.511       .  S
Cd25         O26   2.409       .  S
Cd25       O1462   2.382   1_455  S
Cd25       O1469   2.482   1_455  S
Cd25       O1467   2.356   1_455  S
O27       Cd1465   2.356       .  S
C28          O32   1.271       .  A
C28        O1462   1.264   1_455  A
O29       Cd1465   2.482       .  S
O33          C36   1.270       .  A
O33         Cd38   2.466       .  S
C34          C90   1.525       .  S
C34          O43   1.264       .  A
C34          O39   1.268       .  A
O35          C41   1.262       .  A
O35         Cd38   2.436       .  S
C36         C366   1.529       .  S
C36          O44   1.265       .  A
C37          O42   1.261       .  A
C37          O40   1.268       .  A
C37          C80   1.466       .  S
Cd38         O45   2.397       .  S
Cd38         O44   2.440       .  S
Cd38         O43   2.449       .  S
Cd38         O39   2.481       .  S
Cd38         O42   2.404       .  S
Cd38         O40   2.530       .  S
C41          O45   1.262       .  A
O46         C769   1.266       .  A
O46        Cd771   2.517       .  S
C47        C1081   1.538       .  S
C47          O56   1.262       .  A
C47         O772   1.273   1_545  A
O48          C54   1.260       .  A
O48         Cd51   2.450       .  S
C49          C85   1.555       .  S
C49          O57   1.270       .  A
C49         O766   1.266       .  A
C50          O55   1.261       .  A
C50         O773   1.270   1_545  A
C50          C67   1.474       .  S
Cd51         O58   2.409       .  S
Cd51         O57   2.509       .  S
Cd51         O56   2.431       .  S
Cd51         O55   2.403       .  S
Cd51        O766   2.517       .  S
Cd51        O772   2.503   1_545  S
Cd51        O773   2.562   1_545  S
O52         C767   1.273       .  A
O52        Cd771   2.503       .  S
O53         C770   1.270       .  A
O53        Cd771   2.562       .  S
C54          O58   1.263       .  A
O59         C782   1.270       .  A
O59        Cd784   2.476       .  S
C60         C362   1.532       .  S
C60          O69   1.271       .  A
C60         O785   1.266       .  A
O61          C67   1.260       .  A
O61         Cd64   2.396       .  S
C62          C86   1.526       .  S
C62          O70   1.263       .  A
C62         O779   1.270   1_545  A
C63          O68   1.262       .  A
C63          O66   1.257       .  A
C63          C76   1.437       .  S
Cd64         O70   2.437       .  S
Cd64         O69   2.492       .  S
Cd64         O68   2.469       .  S
Cd64         O66   2.340       .  S
Cd64        O779   2.476   1_545  S
Cd64        O791   2.564   1_545  S
Cd64        O785   2.494       .  S
O65         C780   1.266       .  A
O65        Cd784   2.494       .  S
C67         O791   1.271   1_545  A
O71         C787   1.271       .  A
O71        Cd784   2.564       .  S
O72          C75   1.265       .  A
O72         Cd77   2.457       .  S
C73          C87   1.529       .  S
C73          O82   1.261       .  A
C73          O78   1.268       .  A
O74          C80   1.263       .  A
O74         Cd77   2.388       .  S
C75         C363   1.521       .  S
C75          O83   1.270       .  A
C76          O81   1.264       .  A
C76          O79   1.256       .  A
Cd77         O84   2.516       .  S
Cd77         O83   2.485       .  S
Cd77         O82   2.415       .  S
Cd77         O78   2.481       .  S
Cd77         O81   2.484       .  S
Cd77         O79   2.319       .  S
C80          O84   1.271       .  A
C85         C234   1.612       .  S
C85         C814   1.529       .  S
C85         C970   1.610   1_545  S
C86         C107   1.529   1_545  S
C86         C202   1.585       .  S
C86         C941   1.565   1_545  S
C87         C118   1.516       .  S
C87         C186   1.580       .  S
C87         C205   1.572       .  S
C88         C133   1.533       .  S
C88         C189   1.603       .  S
C88        C1677   1.593   1_455  S
C89         C157   1.531       .  S
C89         C218   1.568       .  S
C89        C1610   1.564   1_455  S
C90         C146   1.525       .  S
C90         C173   1.571       .  S
C90         C253   1.575       .  S
O91         C814   1.272       .  A
O91        Cd816   2.523   1_545  S
C92         O101   1.268       .  A
C92         O817   1.261       .  A
O93          C99   1.262       .  A
O93         Cd96   2.448       .  S
C94         C805   1.529       .  S
C94         O102   1.264       .  A
C94         O811   1.272       .  A
C95         O100   1.257       .  A
C95         O818   1.271       .  A
C95         C112   1.462       .  S
Cd96        O103   2.430       .  S
Cd96        O102   2.459       .  S
Cd96        O101   2.522       .  S
Cd96        O100   2.350       .  S
Cd96        O811   2.523       .  S
Cd96        O817   2.439       .  S
Cd96        O818   2.548       .  S
O97         C812   1.261       .  A
O97        Cd816   2.439   1_545  S
O98         C815   1.271   1_545  A
O98        Cd816   2.548   1_545  S
C99         O103   1.263       .  A
C99         C147   1.450       .  S
O104        C107   1.266       .  A
O104       Cd829   2.433       .  S
C105        C722   1.537       .  S
C105        O114   1.257       .  A
C105        O830   1.274       .  A
O106        C112   1.261       .  A
O106       Cd109   2.362       .  S
C107        O835   1.268   1_565  A
C108        O113   1.262       .  A
C108        O111   1.262       .  A
C108        C160   1.446       .  S
Cd109       O115   2.491       .  S
Cd109       O114   2.412       .  S
Cd109       O113   2.428       .  S
Cd109       O111   2.409       .  S
Cd109       O824   2.433       .  S
Cd109       O836   2.538       .  S
Cd109       O830   2.508       .  S
O110        C825   1.274   1_545  A
O110       Cd829   2.508   1_545  S
C112        O836   1.269       .  A
O115        C827   1.268       .  A
O116        C832   1.269   1_545  A
O116       Cd829   2.538   1_545  S
O117        C120   1.269       .  A
O117       Cd122   2.452       .  S
C118        O127   1.269       .  A
C118        O123   1.264       .  A
O119        C125   1.260       .  A
O119       Cd122   2.363       .  S
C120        O128   1.262       .  A
C121        O126   1.261       .  A
C121        O124   1.263       .  A
C121        C134   1.436       .  S
Cd122       O129   2.525       .  S
Cd122       O128   2.431       .  S
Cd122       O127   2.465       .  S
Cd122       O123   2.452       .  S
Cd122       O126   2.398       .  S
Cd122       O124   2.401       .  S
C125        O129   1.270       .  A
C125        C151   1.460       .  S
O130        C133   1.271       .  A
O130       Cd135   2.467       .  S
C131        O140   1.264       .  A
C131        O136   1.268       .  A
O132        C138   1.256       .  A
O132       Cd135   2.369       .  S
C133        O141   1.261       .  A
C134        O139   1.263       .  A
C134        O137   1.260       .  A
Cd135       O142   2.561       .  S
Cd135       O141   2.461       .  S
Cd135       O140   2.454       .  S
Cd135       O136   2.475       .  S
Cd135       O139   2.411       .  S
Cd135       O137   2.384       .  S
C138        O142   1.269       .  A
C138        C164   1.465       .  S
O143        C146   1.261       .  A
O143       Cd148   2.447       .  S
C144        O153   1.270       .  A
C144        O149   1.264       .  A
O145        C151   1.263       .  A
O145       Cd148   2.356       .  S
C146        O154   1.266       .  A
C147        O152   1.264       .  A
C147        O150   1.257       .  A
Cd148       O155   2.512       .  S
Cd148       O154   2.516       .  S
Cd148       O153   2.504       .  S
Cd148       O149   2.432       .  S
Cd148       O152   2.467       .  S
Cd148       O150   2.408       .  S
C151        O155   1.272       .  A
O156        C159   1.262       .  A
O156       Cd161   2.454       .  S
C157        O166   1.268       .  A
C157        O162   1.262       .  A
O158        C164   1.263       .  A
O158       Cd161   2.362       .  S
C159        O167   1.268       .  A
C160        O165   1.262       .  A
C160        O163   1.260       .  A
Cd161       O168   2.532       .  S
Cd161       O167   2.501       .  S
Cd161       O166   2.512       .  S
Cd161       O162   2.423       .  S
Cd161       O165   2.438       .  S
Cd161       O163   2.424       .  S
C164        O168   1.272       .  A
C169        C170   1.415       .  A
C169        C174   1.407       .  A
C169        H176   1.078       .  S
C170       C1529   1.564       .  S
C170        C171   1.433       .  A
C171       C1618   1.522       .  S
C171        C172   1.416       .  A
C172        C173   1.410       .  A
C172        H177   1.084       .  S
C173        C174   1.435       .  A
C174        C175   1.531       .  S
C175        F179   1.387       .  S
C175        F180   1.382       .  S
C175        F181   1.377       .  S
C178       C1611   1.522   1_455  S
C178        F182   1.384       .  S
C178        F183   1.368       .  S
C178       F1624   1.380   1_455  S
F184       C1618   1.380       .  S
C185        C186   1.412       .  A
C185        C190   1.413       .  A
C185        H192   1.085       .  S
C186        C187   1.424       .  A
C187        C194   1.523       .  S
C187        C188   1.418       .  A
C188        C189   1.421       .  A
C188        H193   1.075       .  S
C189        C190   1.451       .  A
C190        C191   1.539       .  S
C191        F195   1.385       .  S
C191        F196   1.371       .  S
C191        F197   1.383       .  S
C194        F198   1.380       .  S
C194        F199   1.378       .  S
C194        F200   1.374       .  S
C201        C202   1.417       .  A
C201        C206   1.405       .  A
C201        H208   1.075       .  S
C202        C203   1.440       .  A
C203        C210   1.526       .  S
C203        C204   1.419       .  A
C204        C205   1.412       .  A
C204        H209   1.085       .  S
C205        C206   1.436       .  A
C206        C207   1.533       .  S
C207        F211   1.387       .  S
C207        F212   1.377       .  S
C207        F213   1.375       .  S
C210        F214   1.372   1_545  S
C210        F216   1.384       .  S
C210        F935   1.383       .  S
F215        C930   1.383       .  S
C217        C218   1.409       .  A
C217        C222   1.403       .  A
C217        H224   1.083       .  S
C218        C219   1.436       .  A
C219        C226   1.529       .  S
C219        C220   1.416       .  A
C220        C221   1.416       .  A
C220        H225   1.079       .  S
C221        C806   1.565       .  S
C221        C222   1.440       .  A
C222        C223   1.534       .  S
C223        F227   1.383       .  S
C223        F228   1.373       .  S
C223        F229   1.385       .  S
C226        F230   1.379       .  S
C226        F231   1.378       .  S
C226        F232   1.386       .  S
C233        C234   1.424       .  A
C233        C238   1.413       .  A
C233        H240   1.083       .  S
C234        C235   1.449       .  A
C235        C242   1.504       .  S
C235        C236   1.422       .  A
C236        C237   1.399       .  A
C236       H1681   1.077       .  S
C237       C1528   1.593       .  S
C237        C238   1.438       .  A
C238        C239   1.535       .  S
C239        F243   1.384       .  S
C239        F244   1.373       .  S
C239        F245   1.380       .  S
H241       C1676   1.077   1_455  S
C242        F246   1.358       .  S
C242        F247   1.379   1_545  S
C242        F248   1.380       .  S
C249        C250   1.430       .  A
C249        C254   1.417       .  A
C249        H256   1.079       .  S
C250        C805   1.610       .  S
C250        C251   1.433       .  A
C251        C258   1.525       .  S
C251        C252   1.417       .  A
C252        C253   1.416       .  A
C252        H257   1.083       .  S
C253        C254   1.442       .  A
C254        C255   1.528       .  S
C255        F259   1.380       .  S
C255        F260   1.375       .  S
C255        F261   1.386       .  S
C258        F262   1.383       .  S
C258        F264   1.370       .  S
C258        F983   1.367       .  S
F263        C978   1.367       .  S
C265        C266   1.410       .  A
C265        C270   1.409       .  A
C265        H272   1.076       .  S
C266        C627   1.439   1_554  A
C267        C274   1.533       .  S
C267        C268   1.422       .  A
C267        C626   1.439       .  A
C268        C629   1.411       .  A
C268        H273   1.081       .  S
C269       C1445   1.578   1_554  S
C269        C270   1.446       .  A
C269        C628   1.411   1_554  A
C270        C271   1.537       .  S
C271        F275   1.386       .  S
C271        F276   1.379       .  S
C271        F277   1.377       .  S
C274        F279   1.371       .  S
C274        F280   1.367       .  S
C274        F638   1.376       .  S
F278        C634   1.376       .  S
C281        C286   1.420       .  A
C281        C642   1.414       .  A
C281        H288   1.084       .  S
C282        C363   1.590       .  S
C282        C283   1.440       .  A
C282        C641   1.414       .  A
C283        C290   1.534       .  S
C283        C284   1.405       .  A
C284        C285   1.412       .  A
C284        H289   1.075       .  S
C285        C364   1.583       .  S
C285        C646   1.439       .  A
C286        C287   1.523       .  S
C286        C645   1.439       .  A
C287        F291   1.384       .  S
C287        F292   1.373       .  S
C287        F293   1.384       .  S
C290        F294   1.375       .  S
C290        F295   1.378       .  S
C290        F296   1.387       .  S
C297        C298   1.420       .  A
C297        C302   1.414       .  A
C297        H304   1.072       .  S
C298        C659   1.450       .  A
C299        C306   1.534       .  S
C299        C300   1.414       .  A
C299        C658   1.450       .  A
C300        C661   1.413       .  A
C300        H305   1.081       .  S
C301        C302   1.418       .  A
C301        C660   1.413       .  A
C302        C303   1.522       .  S
C303        F307   1.383       .  S
C303        F308   1.380   1_545  S
C303        F309   1.384       .  S
C306        F311   1.380       .  S
C306        F312   1.383       .  S
C306        F670   1.371       .  S
F310        C666   1.371       .  S
C313        C318   1.422       .  A
C313        C674   1.420       .  A
C313        H320   1.072       .  S
C314        C722   1.598   1_556  S
C314        C315   1.448       .  A
C314        C673   1.420       .  A
C315        C322   1.538       .  S
C315        C316   1.412       .  A
C316        C317   1.415       .  A
C316        H321   1.085       .  S
C317        C678   1.434   1_556  A
C318        C319   1.523       .  S
C318        C677   1.434       .  A
C319        F325   1.377       .  S
C319        F683   1.379       .  S
C319        F684   1.378       .  S
C322        F326   1.384   1_556  S
C322        F687   1.369       .  S
C322        F688   1.384       .  S
F323        C679   1.379       .  S
F324        C679   1.378       .  S
F327        C682   1.369       .  S
F328        C682   1.384       .  S
C329        C330   1.414   1_556  A
C329        C334   1.414       .  A
C329        H336   1.083       .  S
C330       C1444   1.561       .  S
C330        C691   1.433       .  A
C331        C338   1.530       .  S
C331        C332   1.403       .  A
C331        C690   1.433       .  A
C332        C693   1.416       .  A
C332        H337   1.082       .  S
C333        C721   1.563       .  S
C333        C334   1.435   1_554  A
C333        C692   1.416       .  A
C334        C335   1.527       .  S
C335        F339   1.384       .  S
C335        F341   1.383       .  S
C335       F1420   1.373   1_545  S
C338        F342   1.386       .  S
C338        F703   1.375       .  S
C338        F704   1.383       .  S
F340       C1415   1.373       .  S
F343        C698   1.375       .  S
F344        C698   1.383       .  S
C345        C346   1.415       .  A
C345        C350   1.402       .  A
C345        H352   1.082       .  S
C346        C361   1.562       .  S
C346        C707   1.439       .  A
C347        C354   1.533       .  S
C347        C348   1.413       .  A
C347        C706   1.439       .  A
C348        C709   1.413       .  A
C348        H353   1.081       .  S
C349        C366   1.559       .  S
C349        C350   1.430       .  A
C349        C708   1.413       .  A
C350        C351   1.530       .  S
C351        F355   1.384       .  S
C351        F357   1.381       .  S
C351        F716   1.374       .  S
C354        F358   1.374       .  S
C354        F360   1.384       .  S
C354       F1439   1.376       .  S
F356        C711   1.374       .  S
F359       C1434   1.376   1_545  S
C361        C767   1.538       .  S
C361        C452   1.534       .  S
C361       C1413   1.563       .  S
C362       C1185   1.537   1_545  S
C362        C661   1.585       .  S
C362       C1394   1.598   1_545  S
C363        C480   1.518       .  S
C363        C658   1.587       .  S
C364        C491   1.529       .  S
C364       C2130   1.561   1_455  S
C365        C519   1.521       .  S
C365       C2069   1.578   1_455  S
C365        C677   1.591       .  S
C366        C504   1.532       .  S
C366        C626   1.579       .  S
O367        C370   1.271       .  A
O367       Cd372   2.504       .  S
C368        O377   1.262       .  A
C368        O373   1.272       .  A
O369        C375   1.264       .  A
O369      Cd1812   2.446       .  S
C370        C449   1.545       .  S
C370       O1818   1.265       .  A
C371       O1816   1.257   1_455  A
C371        O374   1.269       .  A
C371        C388   1.468       .  S
Cd372      O1809   2.446   1_455  S
Cd372      O1819   2.397   1_455  S
Cd372      O1818   2.466       .  S
Cd372       O377   2.452       .  S
Cd372       O373   2.514       .  S
Cd372      O1816   2.387   1_455  S
Cd372       O374   2.562       .  S
C375        O379   1.260       .  A
C375        C401   1.442       .  S
O376       C1811   1.257       .  A
O376      Cd1812   2.387       .  S
O378       C1810   1.265       .  A
O378      Cd1812   2.466       .  S
O379      Cd1812   2.397       .  S
O380        C383   1.271       .  A
O380       Cd385   2.485       .  S
C381        O390   1.269       .  A
C381        O386   1.264       .  A
O382       C1828   1.264       .  A
O382      Cd1825   2.382       .  S
C383        C448   1.529       .  S
C383        O391   1.261       .  A
C384        O389   1.264       .  A
C384        O387   1.254       .  A
C384        C414   1.447       .  S
Cd385      O1822   2.382   1_455  S
Cd385       O392   2.534       .  S
Cd385       O391   2.448       .  S
Cd385       O390   2.511       .  S
Cd385       O386   2.409       .  S
Cd385      O1829   2.482   1_455  S
Cd385      O1827   2.356   1_455  S
O387      Cd1825   2.356       .  S
C388       O1822   1.264   1_455  A
C388        O392   1.271       .  A
O389      Cd1825   2.482       .  S
O393        C396   1.270       .  A
O393       Cd398   2.466       .  S
C394        C450   1.525       .  S
C394        O403   1.264       .  A
C394        O399   1.268       .  A
O395        C401   1.262       .  A
O395       Cd398   2.436       .  S
C396        O404   1.265       .  A
C397        O402   1.261       .  A
C397        O400   1.268       .  A
C397        C440   1.466       .  S
Cd398       O405   2.397       .  S
Cd398       O404   2.440       .  S
Cd398       O403   2.449       .  S
Cd398       O399   2.481       .  S
Cd398       O402   2.404       .  S
Cd398       O400   2.530       .  S
C401        O405   1.262       .  A
O406       C1129   1.266       .  A
O406      Cd1131   2.517       .  S
C407        C721   1.538   1_556  S
C407        O416   1.262       .  A
C407       O1132   1.273   1_545  A
O408        C414   1.260       .  A
O408       Cd411   2.450       .  S
C409        C445   1.555       .  S
C409       O1126   1.266       .  A
C409        O417   1.270       .  A
C410        O415   1.261       .  A
C410       O1133   1.270   1_545  A
C410        C427   1.474       .  S
Cd411      O1126   2.517       .  S
Cd411       O418   2.409       .  S
Cd411       O417   2.509       .  S
Cd411       O416   2.431       .  S
Cd411      O1132   2.503   1_545  S
Cd411       O415   2.403       .  S
Cd411      O1133   2.562   1_545  S
O412       C1127   1.273       .  A
O412      Cd1131   2.503       .  S
O413       C1130   1.270       .  A
O413      Cd1131   2.562       .  S
C414        O418   1.263       .  A
O419       C1142   1.270       .  A
O419      Cd1144   2.476       .  S
C420        O429   1.271       .  A
C420       O1145   1.266       .  A
O421        C427   1.260       .  A
O421       Cd424   2.396       .  S
C422        C446   1.526       .  S
C422       O1139   1.270   1_545  A
C422        O430   1.263       .  A
C423        O428   1.262       .  A
C423        O426   1.257       .  A
C423        C436   1.437       .  S
Cd424      O1139   2.476   1_545  S
Cd424      O1151   2.564   1_545  S
Cd424       O430   2.437       .  S
Cd424       O429   2.492       .  S
Cd424      O1145   2.494       .  S
Cd424       O428   2.469       .  S
Cd424       O426   2.340       .  S
O425       C1140   1.266       .  A
O425      Cd1144   2.494       .  S
C427       O1151   1.271   1_545  A
O431       C1147   1.271       .  A
O431      Cd1144   2.564       .  S
O432        C435   1.265       .  A
O432       Cd437   2.457       .  S
C433        C447   1.529       .  S
C433        O442   1.261       .  A
C433        O438   1.268       .  A
O434        C440   1.263       .  A
O434       Cd437   2.389       .  S
C435        O443   1.270       .  A
C436        O441   1.264       .  A
C436        O439   1.256       .  A
Cd437       O444   2.516       .  S
Cd437       O443   2.485       .  S
Cd437       O442   2.415       .  S
Cd437       O438   2.481       .  S
Cd437       O441   2.484       .  S
Cd437       O439   2.318       .  S
C440        O444   1.271       .  A
C445       C1174   1.529       .  S
C445        C594   1.612       .  S
C445       C1330   1.610   1_545  S
C446        C467   1.529   1_545  S
C446        C562   1.585       .  S
C446       C1301   1.565   1_545  S
C447        C478   1.516       .  S
C447        C546   1.580       .  S
C447        C565   1.572       .  S
C448        C493   1.533       .  S
C448        C549   1.603       .  S
C448       C2037   1.593   1_455  S
C449        C517   1.531       .  S
C449       C1970   1.564   1_455  S
C449        C578   1.568       .  S
C450        C506   1.525       .  S
C450        C533   1.571       .  S
C450        C613   1.575       .  S
O451       C1174   1.272       .  A
O451      Cd1176   2.523   1_545  S
C452        O461   1.268       .  A
C452       O1177   1.261       .  A
O453        C459   1.262       .  A
O453       Cd456   2.448       .  S
C454       C1165   1.529       .  S
C454       O1171   1.272       .  A
C454        O462   1.264       .  A
C455        O460   1.257       .  A
C455       O1178   1.271       .  A
C455        C472   1.462       .  S
Cd456      O1171   2.523       .  S
Cd456       O463   2.430       .  S
Cd456       O462   2.459       .  S
Cd456       O461   2.522       .  S
Cd456      O1177   2.439       .  S
Cd456       O460   2.350       .  S
Cd456      O1178   2.548       .  S
O457       C1172   1.261       .  A
O457      Cd1176   2.439   1_545  S
O458       C1175   1.271   1_545  A
O458      Cd1176   2.548   1_545  S
C459        O463   1.263       .  A
C459        C507   1.450       .  S
O464        C467   1.266       .  A
O464      Cd1189   2.433       .  S
C465       C1082   1.537       .  S
C465        O474   1.257       .  A
C465       O1190   1.274       .  A
O466        C472   1.261       .  A
O466       Cd469   2.362       .  S
C467       O1195   1.268   1_565  A
C468        O473   1.262       .  A
C468        O471   1.262       .  A
C468        C520   1.446       .  S
Cd469      O1184   2.433       .  S
Cd469      O1196   2.538       .  S
Cd469       O475   2.491       .  S
Cd469       O474   2.412       .  S
Cd469      O1190   2.508       .  S
Cd469       O473   2.428       .  S
Cd469       O471   2.409       .  S
O470       C1185   1.274   1_545  A
O470      Cd1189   2.508   1_545  S
C472       O1196   1.269       .  A
O475       C1187   1.268       .  A
O476       C1192   1.269   1_545  A
O476      Cd1189   2.538   1_545  S
O477        C480   1.269       .  A
O477       Cd482   2.452       .  S
C478        O487   1.269       .  A
C478        O483   1.264       .  A
O479        C485   1.260       .  A
O479       Cd482   2.363       .  S
C480        O488   1.262       .  A
C481        O486   1.261       .  A
C481        O484   1.263       .  A
C481        C494   1.436       .  S
Cd482       O489   2.525       .  S
Cd482       O488   2.431       .  S
Cd482       O487   2.465       .  S
Cd482       O483   2.452       .  S
Cd482       O486   2.398       .  S
Cd482       O484   2.401       .  S
C485        O489   1.270       .  A
C485        C511   1.460       .  S
O490        C493   1.271       .  A
O490       Cd495   2.467       .  S
C491        O500   1.264       .  A
C491        O496   1.268       .  A
O492        C498   1.256       .  A
O492       Cd495   2.369       .  S
C493        O501   1.261       .  A
C494        O499   1.263       .  A
C494        O497   1.260       .  A
Cd495       O502   2.561       .  S
Cd495       O501   2.461       .  S
Cd495       O500   2.455       .  S
Cd495       O496   2.475       .  S
Cd495       O499   2.411       .  S
Cd495       O497   2.384       .  S
C498        O502   1.269       .  A
C498        C524   1.465       .  S
O503        C506   1.261       .  A
O503       Cd508   2.447       .  S
C504        O513   1.270       .  A
C504        O509   1.264       .  A
O505        C511   1.263       .  A
O505       Cd508   2.356       .  S
C506        O514   1.266       .  A
C507        O512   1.264       .  A
C507        O510   1.257       .  A
Cd508       O515   2.512       .  S
Cd508       O514   2.516       .  S
Cd508       O513   2.504       .  S
Cd508       O509   2.432       .  S
Cd508       O512   2.467       .  S
Cd508       O510   2.408       .  S
C511        O515   1.272       .  A
O516        C519   1.262       .  A
O516       Cd521   2.454       .  S
C517        O526   1.268       .  A
C517        O522   1.262       .  A
O518        C524   1.263       .  A
O518       Cd521   2.362       .  S
C519        O527   1.268       .  A
C520        O525   1.262       .  A
C520        O523   1.260       .  A
Cd521       O528   2.532       .  S
Cd521       O527   2.501       .  S
Cd521       O526   2.512       .  S
Cd521       O522   2.423       .  S
Cd521       O525   2.438       .  S
Cd521       O523   2.424       .  S
C524        O528   1.272       .  A
C529        C530   1.415       .  A
C529        C534   1.407       .  A
C529        H536   1.078       .  S
C530       C1889   1.564       .  S
C530        C531   1.433       .  A
C531       C1978   1.522       .  S
C531        C532   1.416       .  A
C532        C533   1.410       .  A
C532        H537   1.084       .  S
C533        C534   1.435       .  A
C534        C535   1.531       .  S
C535        F539   1.387       .  S
C535        F540   1.382       .  S
C535        F541   1.377       .  S
C538       C1971   1.522   1_455  S
C538        F542   1.384       .  S
C538        F543   1.368       .  S
C538       F1984   1.380   1_455  S
F544       C1978   1.380       .  S
C545        C546   1.412       .  A
C545        C550   1.413       .  A
C545        H552   1.085       .  S
C546        C547   1.424       .  A
C547        C554   1.523       .  S
C547        C548   1.418       .  A
C548        C549   1.421       .  A
C548        H553   1.075       .  S
C549        C550   1.451       .  A
C550        C551   1.539       .  S
C551        F555   1.385       .  S
C551        F556   1.371       .  S
C551        F557   1.383       .  S
C554        F558   1.380       .  S
C554        F559   1.378       .  S
C554        F560   1.374       .  S
C561        C562   1.417       .  A
C561        C566   1.405       .  A
C561        H568   1.075       .  S
C562        C563   1.440       .  A
C563        C570   1.526       .  S
C563        C564   1.419       .  A
C564        C565   1.412       .  A
C564        H569   1.085       .  S
C565        C566   1.436       .  A
C566        C567   1.533       .  S
C567        F571   1.387       .  S
C567        F572   1.377       .  S
C567        F573   1.375       .  S
C570        F574   1.372   1_545  S
C570       F1295   1.383       .  S
C570        F576   1.384       .  S
F575       C1290   1.383       .  S
C577        C578   1.409       .  A
C577        C582   1.403       .  A
C577        H584   1.083       .  S
C578        C579   1.436       .  A
C579        C586   1.529       .  S
C579        C580   1.416       .  A
C580        C581   1.416       .  A
C580        H585   1.079       .  S
C581       C1166   1.565       .  S
C581        C582   1.440       .  A
C582        C583   1.534       .  S
C583        F587   1.383       .  S
C583        F588   1.373       .  S
C583        F589   1.385       .  S
C586        F590   1.379       .  S
C586        F591   1.378       .  S
C586        F592   1.386       .  S
C593        C594   1.424       .  A
C593        C598   1.413       .  A
C593        H600   1.083       .  S
C594        C595   1.449       .  A
C595        C602   1.504       .  S
C595        C596   1.422       .  A
C596        C597   1.399       .  A
C596       H2041   1.077       .  S
C597       C1888   1.593       .  S
C597        C598   1.438       .  A
C598        C599   1.535       .  S
C599        F603   1.384       .  S
C599        F604   1.373       .  S
C599        F605   1.380       .  S
H601       C2036   1.077   1_455  S
C602        F606   1.358       .  S
C602        F607   1.379   1_545  S
C602        F608   1.380       .  S
C609        C610   1.430       .  A
C609        C614   1.417       .  A
C609        H616   1.079       .  S
C610       C1165   1.610       .  S
C610        C611   1.433       .  A
C611        C618   1.525       .  S
C611        C612   1.417       .  A
C612        C613   1.416       .  A
C612        H617   1.083       .  S
C613        C614   1.442       .  A
C614        C615   1.528       .  S
C615        F619   1.380       .  S
C615        F620   1.375       .  S
C615        F621   1.386       .  S
C618        F622   1.383       .  S
C618       F1343   1.367       .  S
C618        F624   1.370       .  S
F623       C1338   1.367       .  S
C625        C626   1.410       .  A
C625        C630   1.409       .  A
C625        H632   1.076       .  S
C627        C634   1.533       .  S
C627        C628   1.422       .  A
C628        H633   1.081       .  S
C629       C1805   1.578       .  S
C629        C630   1.446       .  A
C630        C631   1.537       .  S
C631        F635   1.386       .  S
C631        F636   1.379       .  S
C631        F637   1.377       .  S
C634        F639   1.371       .  S
C634        F640   1.367       .  S
C641        C646   1.420       .  A
C641        H648   1.084       .  S
C642        C643   1.440   1_554  A
C643        C650   1.534       .  S
C643        C644   1.405       .  A
C644        C645   1.412   1_556  A
C644        H649   1.075       .  S
C646        C647   1.523       .  S
C647        F651   1.384       .  S
C647        F652   1.373       .  S
C647        F653   1.384       .  S
C650        F654   1.375       .  S
C650        F655   1.378       .  S
C650        F656   1.387       .  S
C657        C658   1.420       .  A
C657        C662   1.414       .  A
C657        H664   1.072       .  S
C659        C666   1.534       .  S
C659        C660   1.414       .  A
C660        H665   1.081   1_554  S
C661        C662   1.418       .  A
C662        C663   1.522       .  S
C663        F667   1.383       .  S
C663        F668   1.380   1_545  S
C663        F669   1.384       .  S
C666        F671   1.380   1_554  S
C666        F672   1.383       .  S
C673        C678   1.422   1_556  A
C673        H680   1.072       .  S
C674       C1082   1.598       .  S
C674        C675   1.448       .  A
C675        C682   1.538       .  S
C675        C676   1.412       .  A
C676        C677   1.415       .  A
C676        H681   1.085       .  S
C678        C679   1.523       .  S
C679        F685   1.377   1_554  S
C682        F686   1.384       .  S
C689        C690   1.414       .  A
C689        C694   1.414       .  A
C689        H696   1.083       .  S
C690       C1804   1.561       .  S
C691        C698   1.530       .  S
C691        C692   1.403       .  A
C692        H697   1.082       .  S
C693       C1081   1.563       .  S
C693        C694   1.435       .  A
C694        C695   1.527       .  S
C695        F699   1.384       .  S
C695       F1060   1.373   1_545  S
C695        F701   1.383       .  S
C698        F702   1.386       .  S
F700       C1055   1.373       .  S
C705        C706   1.415   1_556  A
C705        C710   1.402       .  A
C705        H712   1.082       .  S
C707        C714   1.533       .  S
C707        C708   1.413       .  A
C708        H713   1.081       .  S
C709        C710   1.430   1_554  A
C710        C711   1.530       .  S
C711        F715   1.384   1_556  S
C711        F717   1.381       .  S
C714        F718   1.374       .  S
C714       F1079   1.376       .  S
C714        F720   1.384       .  S
F719       C1074   1.376   1_545  S
C721        C812   1.534       .  S
C721       C1426   1.562   1_545  S
C722       C1140   1.532   1_554  S
C722       C1021   1.585       .  S
C723       C1155   1.521   1_554  S
C723        C840   1.518       .  S
C723       C1362   1.590       .  S
C723       C1018   1.587       .  S
C724       C1101   1.534   1_554  S
C724        C851   1.529       .  S
C724       C1365   1.583       .  S
C724       C2490   1.561   1_455  S
C725       C1088   1.540       .  S
C725        C879   1.521   1_556  S
C725       C2429   1.578   1_456  S
C725       C1037   1.591       .  S
C726       C1116   1.529   1_554  S
C726        C864   1.532       .  S
C726        C986   1.579       .  S
C726       C1429   1.559       .  S
O727        C730   1.271       .  A
O727       Cd732   2.504       .  S
C728       C1085   1.540       .  S
C728        O737   1.262       .  A
C728        O733   1.272       .  A
O729        C735   1.264       .  A
O729      Cd2172   2.446       .  S
C730        C809   1.545       .  S
C730       O2178   1.265       .  A
C731       O2176   1.257   1_455  A
C731        O734   1.269       .  A
C731        C748   1.468       .  S
Cd732      O2169   2.446   1_455  S
Cd732      O2179   2.397   1_455  S
Cd732      O2178   2.466       .  S
Cd732       O737   2.452       .  S
Cd732       O733   2.514       .  S
Cd732      O2176   2.387   1_455  S
Cd732       O734   2.562       .  S
C735        O739   1.260       .  A
C735        C761   1.442       .  S
O736       C2171   1.257       .  A
O736      Cd2172   2.387       .  S
O738       C2170   1.265       .  A
O738      Cd2172   2.466       .  S
O739      Cd2172   2.397       .  S
O740        C743   1.271       .  A
O740       Cd745   2.485       .  S
C741       C1084   1.534       .  S
C741        O750   1.269       .  A
C741        O746   1.264       .  A
O742       C2188   1.264       .  A
O742      Cd2185   2.382       .  S
C743        C808   1.529       .  S
C743        O751   1.261       .  A
C744        O749   1.264       .  A
C744        O747   1.254       .  A
C744        C774   1.447       .  S
Cd745      O2182   2.382   1_455  S
Cd745       O752   2.534       .  S
Cd745       O751   2.448       .  S
Cd745       O750   2.511       .  S
Cd745       O746   2.409       .  S
Cd745      O2189   2.482   1_455  S
Cd745      O2187   2.356   1_455  S
O747      Cd2185   2.356       .  S
C748       O2182   1.264   1_455  A
C748        O752   1.271       .  A
O749      Cd2185   2.482       .  S
O753        C756   1.270       .  A
O753       Cd758   2.466       .  S
C754        C810   1.525       .  S
C754        O763   1.264       .  A
C754        O759   1.268       .  A
O755        C761   1.262       .  A
O755       Cd758   2.436       .  S
C756       C1086   1.529       .  S
C756        O764   1.265       .  A
C757        O762   1.261       .  A
C757        O760   1.268       .  A
C757        C800   1.466       .  S
Cd758       O765   2.397       .  S
Cd758       O764   2.440       .  S
Cd758       O763   2.449       .  S
Cd758       O759   2.481       .  S
Cd758       O762   2.404       .  S
Cd758       O760   2.530       .  S
C761        O765   1.262       .  A
C767        O776   1.262       .  A
O768        C774   1.260       .  A
O768       Cd771   2.450       .  S
C769        C805   1.555       .  S
C769        O777   1.270       .  A
C770        O775   1.261       .  A
C770        C787   1.474       .  S
Cd771       O778   2.409       .  S
Cd771       O777   2.509       .  S
Cd771       O776   2.431       .  S
Cd771       O775   2.403       .  S
C774        O778   1.263       .  A
C780       C1082   1.532       .  S
C780        O789   1.271       .  A
O781        C787   1.260       .  A
O781       Cd784   2.396       .  S
C782        C806   1.526       .  S
C782        O790   1.263       .  A
C783        O788   1.262       .  A
C783        O786   1.257       .  A
C783        C796   1.437       .  S
Cd784       O790   2.437       .  S
Cd784       O789   2.492       .  S
Cd784       O788   2.469       .  S
Cd784       O786   2.340       .  S
O792        C795   1.265       .  A
O792       Cd797   2.457       .  S
C793        C807   1.529       .  S
C793        O802   1.261       .  A
C793        O798   1.268       .  A
O794        C800   1.263       .  A
O794       Cd797   2.389       .  S
C795       C1083   1.521       .  S
C795        O803   1.270       .  A
C796        O801   1.264       .  A
C796        O799   1.256       .  A
Cd797       O804   2.516       .  S
Cd797       O803   2.485       .  S
Cd797       O802   2.415       .  S
Cd797       O798   2.481       .  S
Cd797       O801   2.484       .  S
Cd797       O799   2.318       .  S
C800        O804   1.271       .  A
C805        C954   1.612       .  S
C806        C827   1.529       .  S
C806        C922   1.585       .  S
C807        C838   1.516       .  S
C807        C906   1.580       .  S
C807        C925   1.572       .  S
C808        C853   1.533       .  S
C808        C909   1.603       .  S
C808       C2397   1.593   1_455  S
C809        C877   1.531       .  S
C809       C2330   1.564   1_455  S
C809        C938   1.568       .  S
C810        C866   1.525       .  S
C810        C893   1.571       .  S
C810        C973   1.575       .  S
C812        O821   1.268   1_545  A
O813        C819   1.262       .  A
O813       Cd816   2.448       .  S
C814        O822   1.264   1_545  A
C815        O820   1.257       .  A
C815        C832   1.462       .  S
Cd816       O823   2.430       .  S
Cd816       O822   2.459       .  S
Cd816       O821   2.522       .  S
Cd816       O820   2.350       .  S
C819        O823   1.263       .  A
C819        C867   1.450       .  S
O824        C827   1.266       .  A
C825        O834   1.257       .  A
O826        C832   1.261       .  A
O826       Cd829   2.362       .  S
C828        O833   1.262       .  A
C828        O831   1.262       .  A
C828        C880   1.446       .  S
Cd829       O835   2.491   1_565  S
Cd829       O834   2.412       .  S
Cd829       O833   2.428       .  S
Cd829       O831   2.409       .  S
O837        C840   1.269       .  A
O837       Cd842   2.452       .  S
C838        O847   1.269       .  A
C838        O843   1.264       .  A
O839        C845   1.260       .  A
O839       Cd842   2.363       .  S
C840        O848   1.262       .  A
C841        O846   1.261       .  A
C841        O844   1.263       .  A
C841        C854   1.436       .  S
Cd842       O849   2.525       .  S
Cd842       O848   2.431       .  S
Cd842       O847   2.464       .  S
Cd842       O843   2.452       .  S
Cd842       O846   2.398       .  S
Cd842       O844   2.401       .  S
C845        O849   1.270       .  A
C845        C871   1.460       .  S
O850        C853   1.271       .  A
O850       Cd855   2.467       .  S
C851        O860   1.264       .  A
C851        O856   1.268       .  A
O852        C858   1.256       .  A
O852       Cd855   2.369       .  S
C853        O861   1.261       .  A
C854        O859   1.263       .  A
C854        O857   1.260       .  A
Cd855       O862   2.561       .  S
Cd855       O861   2.461       .  S
Cd855       O860   2.454       .  S
Cd855       O856   2.475       .  S
Cd855       O859   2.411       .  S
Cd855       O857   2.384       .  S
C858        O862   1.269       .  A
C858        C884   1.465       .  S
O863        C866   1.261       .  A
O863       Cd868   2.447       .  S
C864        O873   1.270       .  A
C864        O869   1.264       .  A
O865        C871   1.263       .  A
O865       Cd868   2.356       .  S
C866        O874   1.266       .  A
C867        O872   1.264       .  A
C867        O870   1.257       .  A
Cd868       O875   2.512       .  S
Cd868       O874   2.516       .  S
Cd868       O873   2.504       .  S
Cd868       O869   2.432       .  S
Cd868       O872   2.467       .  S
Cd868       O870   2.408       .  S
C871        O875   1.272       .  A
O876        C879   1.262       .  A
O876       Cd881   2.454       .  S
C877        O886   1.268       .  A
C877        O882   1.262       .  A
O878        C884   1.263       .  A
O878       Cd881   2.362       .  S
C879        O887   1.268       .  A
C880        O885   1.262       .  A
C880        O883   1.260       .  A
Cd881       O888   2.532       .  S
Cd881       O887   2.501       .  S
Cd881       O886   2.512       .  S
Cd881       O882   2.423       .  S
Cd881       O885   2.438       .  S
Cd881       O883   2.424       .  S
C884        O888   1.272       .  A
C889        C890   1.415       .  A
C889        C894   1.407       .  A
C889        H896   1.078       .  S
C890       C2249   1.564       .  S
C890        C891   1.433       .  A
C891       C2338   1.522       .  S
C891        C892   1.416       .  A
C892        C893   1.410       .  A
C892        H897   1.084       .  S
C893        C894   1.435       .  A
C894        C895   1.531       .  S
C895        F899   1.387       .  S
C895        F900   1.382       .  S
C895        F901   1.377       .  S
C898       C2331   1.522   1_455  S
C898        F902   1.384       .  S
C898        F903   1.368       .  S
C898       F2344   1.380   1_455  S
F904       C2338   1.380       .  S
C905        C906   1.412       .  A
C905        C910   1.413       .  A
C905        H912   1.085       .  S
C906        C907   1.424       .  A
C907        C914   1.523       .  S
C907        C908   1.418       .  A
C908        C909   1.421       .  A
C908        H913   1.075       .  S
C909        C910   1.451       .  A
C910        C911   1.539       .  S
C911        F915   1.385       .  S
C911        F916   1.371       .  S
C911        F917   1.383       .  S
C914        F918   1.380       .  S
C914        F919   1.378       .  S
C914        F920   1.374       .  S
C921        C922   1.417       .  A
C921        C926   1.405       .  A
C921        H928   1.075       .  S
C922        C923   1.440       .  A
C923        C930   1.526       .  S
C923        C924   1.419       .  A
C924        C925   1.412       .  A
C924        H929   1.085       .  S
C925        C926   1.436       .  A
C926        C927   1.533       .  S
C927        F931   1.387       .  S
C927        F932   1.377       .  S
C927        F933   1.375       .  S
C930        F934   1.372       .  S
C930        F936   1.384       .  S
C937        C938   1.409       .  A
C937        C942   1.403       .  A
C937        H944   1.083       .  S
C938        C939   1.436       .  A
C939        C946   1.529       .  S
C939        C940   1.416       .  A
C940        C941   1.416       .  A
C940        H945   1.079       .  S
C941        C942   1.440       .  A
C942        C943   1.534       .  S
C943        F947   1.383       .  S
C943        F948   1.373       .  S
C943        F949   1.385       .  S
C946        F950   1.379       .  S
C946        F951   1.378       .  S
C946        F952   1.386       .  S
C953        C954   1.424       .  A
C953        C958   1.413       .  A
C953        H960   1.083       .  S
C954        C955   1.449       .  A
C955        C962   1.504       .  S
C955        C956   1.422       .  A
C956        C957   1.399       .  A
C956       H2401   1.077       .  S
C957       C2248   1.593       .  S
C957        C958   1.438       .  A
C958        C959   1.535       .  S
C959        F963   1.384       .  S
C959        F964   1.373       .  S
C959        F965   1.380       .  S
H961       C2396   1.077   1_455  S
C962        F966   1.358       .  S
C962        F967   1.379       .  S
C962        F968   1.380       .  S
C969        C970   1.430       .  A
C969        C974   1.417       .  A
C969        H976   1.079       .  S
C970        C971   1.433       .  A
C971        C978   1.525       .  S
C971        C972   1.417       .  A
C972        C973   1.416       .  A
C972        H977   1.083       .  S
C973        C974   1.442       .  A
C974        C975   1.528       .  S
C975        F979   1.380       .  S
C975        F980   1.375       .  S
C975        F981   1.386       .  S
C978        F982   1.383       .  S
C978        F984   1.370       .  S
C985        C986   1.410       .  A
C985        C990   1.409       .  A
C985        H992   1.076       .  S
C986       C1347   1.439   1_554  A
C987        C994   1.533       .  S
C987       C1346   1.439       .  A
C987        C988   1.422       .  A
C988       C1349   1.411       .  A
C988        H993   1.081       .  S
C989       C2165   1.578   1_554  S
C989       C1348   1.411   1_554  A
C989        C990   1.446       .  A
C990        C991   1.537       .  S
C991        F995   1.386       .  S
C991        F996   1.379       .  S
C991        F997   1.377       .  S
C994       F1358   1.376       .  S
C994        F999   1.371       .  S
C994       F1000   1.367       .  S
F998       C1354   1.376       .  S
C1001      C1362   1.414       .  A
C1001      C1006   1.420       .  A
C1001      H1008   1.084       .  S
C1002      C1083   1.590       .  S
C1002      C1361   1.414       .  A
C1002      C1003   1.440       .  A
C1003      C1010   1.534       .  S
C1003      C1004   1.405       .  A
C1004      C1005   1.412       .  A
C1004      H1009   1.075       .  S
C1005      C1084   1.583       .  S
C1005      C1366   1.439       .  A
C1006      C1007   1.523       .  S
C1006      C1365   1.439       .  A
C1007      F1011   1.384       .  S
C1007      F1012   1.373       .  S
C1007      F1013   1.384       .  S
C1010      F1014   1.375       .  S
C1010      F1015   1.378       .  S
C1010      F1016   1.387       .  S
C1017      C1018   1.420       .  A
C1017      C1022   1.414       .  A
C1017      H1024   1.072       .  S
C1018      C1379   1.450       .  A
C1019      C1026   1.534       .  S
C1019      C1378   1.450       .  A
C1019      C1020   1.414       .  A
C1020      C1381   1.413       .  A
C1020      H1025   1.081       .  S
C1021      C1380   1.413       .  A
C1021      C1022   1.418       .  A
C1022      C1023   1.522       .  S
C1023      F1027   1.383       .  S
C1023      F1028   1.380       .  S
C1023      F1029   1.384       .  S
C1026      F1390   1.371       .  S
C1026      F1031   1.380       .  S
C1026      F1032   1.383       .  S
F1030      C1386   1.371       .  S
C1033      C1394   1.420       .  A
C1033      C1038   1.422       .  A
C1033      H1040   1.072       .  S
C1034      C1393   1.420       .  A
C1034      C1035   1.448       .  A
C1035      C1042   1.538       .  S
C1035      C1036   1.412       .  A
C1036      C1037   1.415       .  A
C1036      H1041   1.085       .  S
C1037      C1398   1.434   1_556  A
C1038      C1039   1.523       .  S
C1038      C1397   1.434       .  A
C1039      F1403   1.379       .  S
C1039      F1404   1.378       .  S
C1039      F1045   1.377       .  S
C1042      F1046   1.384   1_556  S
C1042      F1407   1.369       .  S
C1042      F1408   1.384       .  S
F1043      C1399   1.379       .  S
F1044      C1399   1.378       .  S
F1047      C1402   1.369       .  S
F1048      C1402   1.384       .  S
C1049      C1050   1.414   1_556  A
C1049      C1054   1.414       .  A
C1049      H1056   1.083       .  S
C1050      C2164   1.561       .  S
C1050      C1411   1.433       .  A
C1051      C1058   1.530       .  S
C1051      C1410   1.433       .  A
C1051      C1052   1.403       .  A
C1052      C1413   1.416       .  A
C1052      H1057   1.082       .  S
C1053      C1412   1.416       .  A
C1053      C1054   1.435   1_554  A
C1054      C1055   1.527       .  S
C1055      F1059   1.384       .  S
C1055      F1061   1.383       .  S
C1058      F1062   1.386       .  S
C1058      F1423   1.375       .  S
C1058      F1424   1.383       .  S
F1063      C1418   1.375       .  S
F1064      C1418   1.383       .  S
C1065      C1066   1.415       .  A
C1065      C1070   1.402       .  A
C1065      H1072   1.082       .  S
C1066      C1081   1.562   1_565  S
C1066      C1427   1.439       .  A
C1067      C1074   1.533       .  S
C1067      C1426   1.439       .  A
C1067      C1068   1.413       .  A
C1068      C1429   1.413       .  A
C1068      H1073   1.081       .  S
C1069      C1086   1.559       .  S
C1069      C1428   1.413       .  A
C1069      C1070   1.430       .  A
C1070      C1071   1.530       .  S
C1071      F1075   1.384       .  S
C1071      F1436   1.374       .  S
C1071      F1077   1.381       .  S
C1074      F1078   1.374   1_565  S
C1074      F1080   1.384       .  S
F1076      C1431   1.374       .  S
C1081      C1172   1.534       .  S
C1082      C1381   1.585       .  S
C1083      C1200   1.518       .  S
C1083      C1378   1.587       .  S
C1084      C1211   1.529       .  S
C1084      C2850   1.561   1_455  S
C1085      C1239   1.521       .  S
C1085      C2789   1.578   1_455  S
C1085      C1397   1.591       .  S
C1086      C1224   1.532       .  S
C1086      C1346   1.579       .  S
O1087      C1090   1.271       .  A
O1087     Cd1092   2.504       .  S
C1088      O1097   1.262       .  A
C1088      O1093   1.272       .  A
O1089      C1095   1.264       .  A
O1089     Cd2532   2.446       .  S
C1090      C1169   1.545       .  S
C1090      O2538   1.265       .  A
C1091      O2536   1.257   1_455  A
C1091      O1094   1.269       .  A
C1091      C1108   1.468       .  S
Cd1092     O2529   2.446   1_455  S
Cd1092     O2539   2.397   1_455  S
Cd1092     O2538   2.466       .  S
Cd1092     O1097   2.452       .  S
Cd1092     O1093   2.514       .  S
Cd1092     O2536   2.387   1_455  S
Cd1092     O1094   2.562       .  S
C1095      O1099   1.260       .  A
C1095      C1121   1.442       .  S
O1096      C2531   1.257       .  A
O1096     Cd2532   2.387       .  S
O1098      C2530   1.265       .  A
O1098     Cd2532   2.466       .  S
O1099     Cd2532   2.397       .  S
O1100      C1103   1.271       .  A
O1100     Cd1105   2.485       .  S
C1101      O1110   1.269       .  A
C1101      O1106   1.264       .  A
O1102      C2548   1.264       .  A
O1102     Cd2545   2.382       .  S
C1103      C1168   1.529       .  S
C1103      O1111   1.261       .  A
C1104      O1109   1.264       .  A
C1104      O1107   1.254       .  A
C1104      C1134   1.447       .  S
Cd1105     O2542   2.382   1_455  S
Cd1105     O1112   2.534       .  S
Cd1105     O1111   2.448       .  S
Cd1105     O1110   2.511       .  S
Cd1105     O1106   2.409       .  S
Cd1105     O2549   2.482   1_455  S
Cd1105     O2547   2.356   1_455  S
O1107     Cd2545   2.356       .  S
C1108      O2542   1.264   1_455  A
C1108      O1112   1.271       .  A
O1109     Cd2545   2.482       .  S
O1113      C1116   1.270       .  A
O1113     Cd1118   2.466       .  S
C1114      C1170   1.525       .  S
C1114      O1123   1.264       .  A
C1114      O1119   1.268       .  A
O1115      C1121   1.262       .  A
O1115     Cd1118   2.436       .  S
C1116      O1124   1.265       .  A
C1117      O1122   1.261       .  A
C1117      O1120   1.268       .  A
C1117      C1160   1.466       .  S
Cd1118     O1125   2.397       .  S
Cd1118     O1124   2.440       .  S
Cd1118     O1123   2.449       .  S
Cd1118     O1119   2.481       .  S
Cd1118     O1122   2.404       .  S
Cd1118     O1120   2.530       .  S
C1121      O1125   1.262       .  A
C1127      O1136   1.262       .  A
O1128      C1134   1.260       .  A
O1128     Cd1131   2.450       .  S
C1129      C1165   1.555       .  S
C1129      O1137   1.270       .  A
C1130      O1135   1.261       .  A
C1130      C1147   1.474       .  S
Cd1131     O1138   2.409       .  S
Cd1131     O1137   2.509       .  S
Cd1131     O1136   2.431       .  S
Cd1131     O1135   2.403       .  S
C1134      O1138   1.263       .  A
C1140      O1149   1.271       .  A
O1141      C1147   1.260       .  A
O1141     Cd1144   2.396       .  S
C1142      C1166   1.526       .  S
C1142      O1150   1.263       .  A
C1143      O1148   1.262       .  A
C1143      O1146   1.257       .  A
C1143      C1156   1.437       .  S
Cd1144     O1150   2.437       .  S
Cd1144     O1149   2.492       .  S
Cd1144     O1148   2.469       .  S
Cd1144     O1146   2.340       .  S
O1152      C1155   1.265       .  A
O1152     Cd1157   2.457       .  S
C1153      C1167   1.529       .  S
C1153      O1162   1.261       .  A
C1153      O1158   1.268       .  A
O1154      C1160   1.263       .  A
O1154     Cd1157   2.388       .  S
C1155      O1163   1.270       .  A
C1156      O1161   1.264       .  A
C1156      O1159   1.256       .  A
Cd1157     O1164   2.516       .  S
Cd1157     O1163   2.485       .  S
Cd1157     O1162   2.415       .  S
Cd1157     O1158   2.481       .  S
Cd1157     O1161   2.484       .  S
Cd1157     O1159   2.318       .  S
C1160      O1164   1.271       .  A
C1165      C1314   1.612       .  S
C1166      C1187   1.529       .  S
C1166      C1282   1.585       .  S
C1167      C1198   1.516       .  S
C1167      C1266   1.580       .  S
C1167      C1285   1.572       .  S
C1168      C1213   1.533       .  S
C1168      C1269   1.603       .  S
C1168      C2757   1.593   1_455  S
C1169      C1237   1.531       .  S
C1169      C2690   1.564   1_455  S
C1169      C1298   1.568       .  S
C1170      C1226   1.525       .  S
C1170      C1253   1.571       .  S
C1170      C1333   1.575       .  S
C1172      O1181   1.268   1_545  A
O1173      C1179   1.262       .  A
O1173     Cd1176   2.448       .  S
C1174      O1182   1.264   1_545  A
C1175      O1180   1.257       .  A
C1175      C1192   1.462       .  S
Cd1176     O1183   2.430       .  S
Cd1176     O1182   2.459       .  S
Cd1176     O1181   2.522       .  S
Cd1176     O1180   2.350       .  S
C1179      O1183   1.263       .  A
C1179      C1227   1.450       .  S
O1184      C1187   1.266       .  A
C1185      O1194   1.257       .  A
O1186      C1192   1.261       .  A
O1186     Cd1189   2.362       .  S
C1188      O1193   1.262       .  A
C1188      O1191   1.262       .  A
C1188      C1240   1.446       .  S
Cd1189     O1195   2.491   1_565  S
Cd1189     O1194   2.412       .  S
Cd1189     O1193   2.428       .  S
Cd1189     O1191   2.409       .  S
O1197      C1200   1.269       .  A
O1197     Cd1202   2.452       .  S
C1198      O1207   1.269       .  A
C1198      O1203   1.264       .  A
O1199      C1205   1.260       .  A
O1199     Cd1202   2.363       .  S
C1200      O1208   1.262       .  A
C1201      O1206   1.261       .  A
C1201      O1204   1.263       .  A
C1201      C1214   1.436       .  S
Cd1202     O1209   2.525       .  S
Cd1202     O1208   2.431       .  S
Cd1202     O1207   2.465       .  S
Cd1202     O1203   2.452       .  S
Cd1202     O1206   2.398       .  S
Cd1202     O1204   2.401       .  S
C1205      O1209   1.270       .  A
C1205      C1231   1.460       .  S
O1210      C1213   1.271       .  A
O1210     Cd1215   2.467       .  S
C1211      O1220   1.264       .  A
C1211      O1216   1.268       .  A
O1212      C1218   1.256       .  A
O1212     Cd1215   2.369       .  S
C1213      O1221   1.261       .  A
C1214      O1219   1.263       .  A
C1214      O1217   1.260       .  A
Cd1215     O1222   2.561       .  S
Cd1215     O1221   2.461       .  S
Cd1215     O1220   2.454       .  S
Cd1215     O1216   2.475       .  S
Cd1215     O1219   2.411       .  S
Cd1215     O1217   2.384       .  S
C1218      O1222   1.269       .  A
C1218      C1244   1.465       .  S
O1223      C1226   1.261       .  A
O1223     Cd1228   2.447       .  S
C1224      O1233   1.270       .  A
C1224      O1229   1.264       .  A
O1225      C1231   1.263       .  A
O1225     Cd1228   2.356       .  S
C1226      O1234   1.266       .  A
C1227      O1232   1.264       .  A
C1227      O1230   1.257       .  A
Cd1228     O1235   2.512       .  S
Cd1228     O1234   2.516       .  S
Cd1228     O1233   2.504       .  S
Cd1228     O1229   2.432       .  S
Cd1228     O1232   2.467       .  S
Cd1228     O1230   2.408       .  S
C1231      O1235   1.272       .  A
O1236      C1239   1.262       .  A
O1236     Cd1241   2.454       .  S
C1237      O1246   1.268       .  A
C1237      O1242   1.262       .  A
O1238      C1244   1.263       .  A
O1238     Cd1241   2.362       .  S
C1239      O1247   1.268       .  A
C1240      O1245   1.262       .  A
C1240      O1243   1.260       .  A
Cd1241     O1248   2.532       .  S
Cd1241     O1247   2.501       .  S
Cd1241     O1246   2.512       .  S
Cd1241     O1242   2.423       .  S
Cd1241     O1245   2.438       .  S
Cd1241     O1243   2.424       .  S
C1244      O1248   1.272       .  A
C1249      C1250   1.415       .  A
C1249      C1254   1.407       .  A
C1249      H1256   1.078       .  S
C1250      C2609   1.564       .  S
C1250      C1251   1.433       .  A
C1251      C2698   1.522       .  S
C1251      C1252   1.416       .  A
C1252      C1253   1.410       .  A
C1252      H1257   1.084       .  S
C1253      C1254   1.435       .  A
C1254      C1255   1.531       .  S
C1255      F1259   1.387       .  S
C1255      F1260   1.382       .  S
C1255      F1261   1.377       .  S
C1258      C2691   1.522   1_455  S
C1258      F1262   1.384       .  S
C1258      F1263   1.368       .  S
C1258      F2704   1.380   1_455  S
F1264      C2698   1.380       .  S
C1265      C1266   1.412       .  A
C1265      C1270   1.413       .  A
C1265      H1272   1.085       .  S
C1266      C1267   1.424       .  A
C1267      C1274   1.523       .  S
C1267      C1268   1.418       .  A
C1268      C1269   1.421       .  A
C1268      H1273   1.075       .  S
C1269      C1270   1.451       .  A
C1270      C1271   1.539       .  S
C1271      F1275   1.385       .  S
C1271      F1276   1.371       .  S
C1271      F1277   1.383       .  S
C1274      F1278   1.380       .  S
C1274      F1279   1.378       .  S
C1274      F1280   1.374       .  S
C1281      C1282   1.417       .  A
C1281      C1286   1.405       .  A
C1281      H1288   1.075       .  S
C1282      C1283   1.440       .  A
C1283      C1290   1.526       .  S
C1283      C1284   1.419       .  A
C1284      C1285   1.412       .  A
C1284      H1289   1.085       .  S
C1285      C1286   1.436       .  A
C1286      C1287   1.533       .  S
C1287      F1291   1.387       .  S
C1287      F1292   1.377       .  S
C1287      F1293   1.375       .  S
C1290      F1294   1.372       .  S
C1290      F1296   1.384       .  S
C1297      C1298   1.409       .  A
C1297      C1302   1.403       .  A
C1297      H1304   1.083       .  S
C1298      C1299   1.436       .  A
C1299      C1306   1.529       .  S
C1299      C1300   1.416       .  A
C1300      C1301   1.416       .  A
C1300      H1305   1.079       .  S
C1301      C1302   1.440       .  A
C1302      C1303   1.534       .  S
C1303      F1307   1.383       .  S
C1303      F1308   1.373       .  S
C1303      F1309   1.385       .  S
C1306      F1310   1.379       .  S
C1306      F1311   1.378       .  S
C1306      F1312   1.386       .  S
C1313      C1314   1.424       .  A
C1313      C1318   1.413       .  A
C1313      H1320   1.083       .  S
C1314      C1315   1.449       .  A
C1315      C1322   1.504       .  S
C1315      C1316   1.422       .  A
C1316      C1317   1.399       .  A
C1316      H2761   1.077       .  S
C1317      C2608   1.593       .  S
C1317      C1318   1.438       .  A
C1318      C1319   1.535       .  S
C1319      F1323   1.384       .  S
C1319      F1324   1.373       .  S
C1319      F1325   1.380       .  S
H1321      C2756   1.077   1_455  S
C1322      F1326   1.358       .  S
C1322      F1327   1.379       .  S
C1322      F1328   1.380       .  S
C1329      C1330   1.430       .  A
C1329      C1334   1.417       .  A
C1329      H1336   1.079       .  S
C1330      C1331   1.433       .  A
C1331      C1338   1.525       .  S
C1331      C1332   1.417       .  A
C1332      C1333   1.416       .  A
C1332      H1337   1.083       .  S
C1333      C1334   1.442       .  A
C1334      C1335   1.528       .  S
C1335      F1339   1.380       .  S
C1335      F1340   1.375       .  S
C1335      F1341   1.386       .  S
C1338      F1342   1.383       .  S
C1338      F1344   1.370       .  S
C1345      C1346   1.410       .  A
C1345      C1350   1.409       .  A
C1345      H1352   1.076       .  S
C1347      C1354   1.533       .  S
C1347      C1348   1.422       .  A
C1348      H1353   1.081       .  S
C1349      C2525   1.578       .  S
C1349      C1350   1.446       .  A
C1350      C1351   1.537       .  S
C1351      F1355   1.386       .  S
C1351      F1356   1.379       .  S
C1351      F1357   1.377       .  S
C1354      F1359   1.371       .  S
C1354      F1360   1.366       .  S
C1361      C1366   1.420       .  A
C1361      H1368   1.084       .  S
C1362      C1363   1.440   1_554  A
C1363      C1370   1.534       .  S
C1363      C1364   1.405       .  A
C1364      C1365   1.412   1_556  A
C1364      H1369   1.075       .  S
C1366      C1367   1.523       .  S
C1367      F1371   1.384       .  S
C1367      F1372   1.373       .  S
C1367      F1373   1.384       .  S
C1370      F1374   1.375       .  S
C1370      F1375   1.378       .  S
C1370      F1376   1.387       .  S
C1377      C1378   1.420       .  A
C1377      C1382   1.414       .  A
C1377      H1384   1.072       .  S
C1379      C1386   1.534       .  S
C1379      C1380   1.414       .  A
C1380      H1385   1.081   1_554  S
C1381      C1382   1.418       .  A
C1382      C1383   1.522       .  S
C1383      F1387   1.383       .  S
C1383      F1388   1.380       .  S
C1383      F1389   1.384       .  S
C1386      F1391   1.380   1_554  S
C1386      F1392   1.383       .  S
C1393      C1398   1.422   1_556  A
C1393      H1400   1.072       .  S
C1394      C1395   1.448       .  A
C1395      C1402   1.538       .  S
C1395      C1396   1.412       .  A
C1396      C1397   1.415       .  A
C1396      H1401   1.085       .  S
C1398      C1399   1.523       .  S
C1399      F1405   1.377   1_554  S
C1402      F1406   1.384       .  S
C1409      C1410   1.414       .  A
C1409      C1414   1.414       .  A
C1409      H1416   1.083       .  S
C1410      C2524   1.561       .  S
C1411      C1418   1.530       .  S
C1411      C1412   1.403       .  A
C1412      H1417   1.082       .  S
C1413      C1414   1.435       .  A
C1414      C1415   1.527       .  S
C1415      F1419   1.384       .  S
C1415      F1421   1.383       .  S
C1418      F1422   1.386       .  S
C1425      C1426   1.415   1_556  A
C1425      C1430   1.402       .  A
C1425      H1432   1.082       .  S
C1427      C1434   1.533       .  S
C1427      C1428   1.413       .  A
C1428      H1433   1.081       .  S
C1429      C1430   1.430   1_554  A
C1430      C1431   1.530       .  S
C1431      F1435   1.384   1_556  S
C1431      F1437   1.381       .  S
C1434      F1438   1.374   1_565  S
C1434      F1440   1.384       .  S
C1441      C2567   1.538   1_554  S
C1441      C1532   1.534       .  S
C1441      C2493   1.563       .  S
C1441      C2146   1.562       .  S
C1442      C1860   1.532   1_554  S
C1442      C2265   1.536   1_545  S
C1442      C1741   1.585       .  S
C1442      C2474   1.598   1_544  S
C1443      C1875   1.521   1_554  S
C1443      C1560   1.518       .  S
C1443      C2082   1.590       .  S
C1443      C1738   1.587       .  S
C1444      C1821   1.534   1_554  S
C1444      C1571   1.529       .  S
C1444      C2085   1.583       .  S
C1445      C1808   1.540       .  S
C1445      C1599   1.521   1_556  S
C1445      C1757   1.591       .  S
C1446      C1836   1.529   1_554  S
C1446      C1584   1.532       .  S
C1446      C1706   1.579       .  S
C1446      C2149   1.559       .  S
O1447      C1450   1.271       .  A
O1447     Cd1452   2.504       .  S
C1448      C1805   1.540       .  S
C1448      O1457   1.262       .  A
C1448      O1453   1.272       .  A
O1449      C1455   1.264       .  A
C1450      C1529   1.545       .  S
C1451      O1454   1.269       .  A
C1451      C1468   1.468       .  S
Cd1452     O1457   2.452       .  S
Cd1452     O1453   2.514       .  S
Cd1452     O1454   2.562       .  S
C1455      O1459   1.260       .  A
C1455      C1481   1.442       .  S
O1460      C1463   1.271       .  A
O1460     Cd1465   2.485       .  S
C1461      C1804   1.534       .  S
C1461      O1470   1.269       .  A
C1461      O1466   1.264       .  A
C1463      C1528   1.529       .  S
C1463      O1471   1.261       .  A
C1464      O1469   1.264       .  A
C1464      O1467   1.254       .  A
C1464      C1494   1.447       .  S
Cd1465     O1472   2.534       .  S
Cd1465     O1471   2.448       .  S
Cd1465     O1470   2.511       .  S
Cd1465     O1466   2.409       .  S
C1468      O1472   1.271       .  A
O1473      C1476   1.270       .  A
O1473     Cd1478   2.466       .  S
C1474      C1530   1.525       .  S
C1474      O1483   1.264       .  A
C1474      O1479   1.268       .  A
O1475      C1481   1.262       .  A
O1475     Cd1478   2.436       .  S
C1476      C1806   1.529       .  S
C1476      O1484   1.265       .  A
C1477      O1482   1.261       .  A
C1477      O1480   1.268       .  A
C1477      C1520   1.466       .  S
Cd1478     O1485   2.397       .  S
Cd1478     O1484   2.440       .  S
Cd1478     O1483   2.449       .  S
Cd1478     O1479   2.481       .  S
Cd1478     O1482   2.404       .  S
Cd1478     O1480   2.530       .  S
C1481      O1485   1.262       .  A
O1486      C2209   1.266       .  A
O1486     Cd2211   2.517       .  S
C1487      C2521   1.538       .  S
C1487      O1496   1.262       .  A
C1487      O2212   1.273   1_545  A
O1488      C1494   1.260       .  A
O1488     Cd1491   2.450       .  S
C1489      C1525   1.555       .  S
C1489      O2206   1.266       .  A
C1489      O1497   1.270       .  A
C1490      O1495   1.261       .  A
C1490      O2213   1.270   1_545  A
C1490      C1507   1.474       .  S
Cd1491     O2206   2.517       .  S
Cd1491     O1498   2.409       .  S
Cd1491     O1497   2.509       .  S
Cd1491     O1496   2.431       .  S
Cd1491     O2212   2.503   1_545  S
Cd1491     O1495   2.403       .  S
Cd1491     O2213   2.562   1_545  S
O1492      C2207   1.273       .  A
O1492     Cd2211   2.503       .  S
O1493      C2210   1.270       .  A
O1493     Cd2211   2.562       .  S
C1494      O1498   1.263       .  A
O1499      C2222   1.270       .  A
O1499     Cd2224   2.476       .  S
C1500      C1802   1.532       .  S
C1500      O1509   1.271       .  A
C1500      O2225   1.266       .  A
O1501      C1507   1.260       .  A
O1501     Cd1504   2.396       .  S
C1502      C1526   1.526       .  S
C1502      O2219   1.270   1_545  A
C1502      O1510   1.263       .  A
C1503      O1508   1.262       .  A
C1503      O1506   1.257       .  A
C1503      C1516   1.437       .  S
Cd1504     O2219   2.476   1_545  S
Cd1504     O2231   2.564   1_545  S
Cd1504     O1510   2.437       .  S
Cd1504     O1509   2.492       .  S
Cd1504     O2225   2.494       .  S
Cd1504     O1508   2.469       .  S
Cd1504     O1506   2.340       .  S
O1505      C2220   1.266       .  A
O1505     Cd2224   2.494       .  S
C1507      O2231   1.271   1_545  A
O1511      C2227   1.271       .  A
O1511     Cd2224   2.564       .  S
O1512      C1515   1.265       .  A
O1512     Cd1517   2.457       .  S
C1513      C1527   1.529       .  S
C1513      O1522   1.261       .  A
C1513      O1518   1.268       .  A
O1514      C1520   1.263       .  A
O1514     Cd1517   2.389       .  S
C1515      C1803   1.521       .  S
C1515      O1523   1.270       .  A
C1516      O1521   1.264       .  A
C1516      O1519   1.256       .  A
Cd1517     O1524   2.516       .  S
Cd1517     O1523   2.485       .  S
Cd1517     O1522   2.415       .  S
Cd1517     O1518   2.481       .  S
Cd1517     O1521   2.484       .  S
Cd1517     O1519   2.318       .  S
C1520      O1524   1.271       .  A
C1525      C2254   1.529       .  S
C1525      C1674   1.612       .  S
C1525      C2410   1.610   1_545  S
C1526      C1547   1.529   1_545  S
C1526      C1642   1.585       .  S
C1526      C2381   1.565   1_545  S
C1527      C1558   1.516       .  S
C1527      C1626   1.580       .  S
C1527      C1645   1.572       .  S
C1528      C1573   1.533       .  S
C1528      C1629   1.603       .  S
C1529      C1597   1.531       .  S
C1529      C1658   1.568       .  S
C1530      C1586   1.525       .  S
C1530      C1613   1.571       .  S
C1530      C1693   1.575       .  S
O1531      C2254   1.272       .  A
O1531     Cd2256   2.523   1_545  S
C1532      O1541   1.268       .  A
C1532      O2257   1.261       .  A
O1533      C1539   1.262       .  A
O1533     Cd1536   2.448       .  S
C1534      C2245   1.529       .  S
C1534      O2251   1.272       .  A
C1534      O1542   1.264       .  A
C1535      O1540   1.257       .  A
C1535      O2258   1.271       .  A
C1535      C1552   1.462       .  S
Cd1536     O2251   2.523       .  S
Cd1536     O1543   2.430       .  S
Cd1536     O1542   2.459       .  S
Cd1536     O1541   2.522       .  S
Cd1536     O2257   2.439       .  S
Cd1536     O1540   2.350       .  S
Cd1536     O2258   2.548       .  S
O1537      C2252   1.261       .  A
O1537     Cd2256   2.439   1_545  S
O1538      C2255   1.271   1_545  A
O1538     Cd2256   2.548   1_545  S
C1539      O1543   1.263       .  A
C1539      C1587   1.450       .  S
O1544      C1547   1.266       .  A
O1544     Cd2269   2.433       .  S
C1545      C2162   1.537       .  S
C1545      O1554   1.257       .  A
C1545      O2270   1.274       .  A
O1546      C1552   1.261       .  A
O1546     Cd1549   2.362       .  S
C1547      O2275   1.268   1_565  A
C1548      O1553   1.262       .  A
C1548      O1551   1.262       .  A
C1548      C1600   1.446       .  S
Cd1549     O2264   2.433       .  S
Cd1549     O2276   2.538       .  S
Cd1549     O1555   2.491       .  S
Cd1549     O1554   2.412       .  S
Cd1549     O2270   2.508       .  S
Cd1549     O1553   2.428       .  S
Cd1549     O1551   2.409       .  S
O1550      C2265   1.274   1_545  A
O1550     Cd2269   2.508   1_545  S
C1552      O2276   1.269       .  A
O1555      C2267   1.268       .  A
O1556      C2272   1.269   1_545  A
O1556     Cd2269   2.538   1_545  S
O1557      C1560   1.269       .  A
O1557     Cd1562   2.452       .  S
C1558      O1567   1.269       .  A
C1558      O1563   1.264       .  A
O1559      C1565   1.260       .  A
O1559     Cd1562   2.363       .  S
C1560      O1568   1.262       .  A
C1561      O1566   1.261       .  A
C1561      O1564   1.263       .  A
C1561      C1574   1.436       .  S
Cd1562     O1569   2.525       .  S
Cd1562     O1568   2.431       .  S
Cd1562     O1567   2.464       .  S
Cd1562     O1563   2.452       .  S
Cd1562     O1566   2.398       .  S
Cd1562     O1564   2.401       .  S
C1565      O1569   1.270       .  A
C1565      C1591   1.460       .  S
O1570      C1573   1.271       .  A
O1570     Cd1575   2.467       .  S
C1571      O1580   1.264       .  A
C1571      O1576   1.268       .  A
O1572      C1578   1.256       .  A
O1572     Cd1575   2.369       .  S
C1573      O1581   1.261       .  A
C1574      O1579   1.263       .  A
C1574      O1577   1.260       .  A
Cd1575     O1582   2.561       .  S
Cd1575     O1581   2.461       .  S
Cd1575     O1580   2.455       .  S
Cd1575     O1576   2.475       .  S
Cd1575     O1579   2.411       .  S
Cd1575     O1577   2.384       .  S
C1578      O1582   1.269       .  A
C1578      C1604   1.465       .  S
O1583      C1586   1.261       .  A
O1583     Cd1588   2.447       .  S
C1584      O1593   1.270       .  A
C1584      O1589   1.264       .  A
O1585      C1591   1.263       .  A
O1585     Cd1588   2.356       .  S
C1586      O1594   1.266       .  A
C1587      O1592   1.264       .  A
C1587      O1590   1.257       .  A
Cd1588     O1595   2.512       .  S
Cd1588     O1594   2.516       .  S
Cd1588     O1593   2.504       .  S
Cd1588     O1589   2.432       .  S
Cd1588     O1592   2.467       .  S
Cd1588     O1590   2.408       .  S
C1591      O1595   1.272       .  A
O1596      C1599   1.262       .  A
O1596     Cd1601   2.454       .  S
C1597      O1606   1.268       .  A
C1597      O1602   1.262       .  A
O1598      C1604   1.263       .  A
O1598     Cd1601   2.362       .  S
C1599      O1607   1.268       .  A
C1600      O1605   1.262       .  A
C1600      O1603   1.260       .  A
Cd1601     O1608   2.532       .  S
Cd1601     O1607   2.501       .  S
Cd1601     O1606   2.512       .  S
Cd1601     O1602   2.423       .  S
Cd1601     O1605   2.438       .  S
Cd1601     O1603   2.424       .  S
C1604      O1608   1.272       .  A
C1609      C1610   1.415       .  A
C1609      C1614   1.407       .  A
C1609      H1616   1.078       .  S
C1610      C1611   1.433       .  A
C1611      C1612   1.416       .  A
C1612      C1613   1.410       .  A
C1612      H1617   1.084       .  S
C1613      C1614   1.435       .  A
C1614      C1615   1.531       .  S
C1615      F1619   1.387       .  S
C1615      F1620   1.382       .  S
C1615      F1621   1.377       .  S
C1618      F1622   1.384       .  S
C1618      F1623   1.368       .  S
C1625      C1626   1.412       .  A
C1625      C1630   1.413       .  A
C1625      H1632   1.085       .  S
C1626      C1627   1.424       .  A
C1627      C1634   1.523       .  S
C1627      C1628   1.418       .  A
C1628      C1629   1.421       .  A
C1628      H1633   1.075       .  S
C1629      C1630   1.451       .  A
C1630      C1631   1.539       .  S
C1631      F1635   1.385       .  S
C1631      F1636   1.371       .  S
C1631      F1637   1.383       .  S
C1634      F1638   1.380       .  S
C1634      F1639   1.378       .  S
C1634      F1640   1.374       .  S
C1641      C1642   1.417       .  A
C1641      C1646   1.405       .  A
C1641      H1648   1.075       .  S
C1642      C1643   1.440       .  A
C1643      C1650   1.526       .  S
C1643      C1644   1.419       .  A
C1644      C1645   1.412       .  A
C1644      H1649   1.085       .  S
C1645      C1646   1.436       .  A
C1646      C1647   1.533       .  S
C1647      F1651   1.387       .  S
C1647      F1652   1.377       .  S
C1647      F1653   1.375       .  S
C1650      F1654   1.372   1_545  S
C1650      F2375   1.383       .  S
C1650      F1656   1.384       .  S
F1655      C2370   1.383       .  S
C1657      C1658   1.409       .  A
C1657      C1662   1.403       .  A
C1657      H1664   1.083       .  S
C1658      C1659   1.436       .  A
C1659      C1666   1.529       .  S
C1659      C1660   1.416       .  A
C1660      C1661   1.416       .  A
C1660      H1665   1.079       .  S
C1661      C2246   1.565       .  S
C1661      C1662   1.440       .  A
C1662      C1663   1.534       .  S
C1663      F1667   1.383       .  S
C1663      F1668   1.373       .  S
C1663      F1669   1.385       .  S
C1666      F1670   1.379       .  S
C1666      F1671   1.378       .  S
C1666      F1672   1.386       .  S
C1673      C1674   1.424       .  A
C1673      C1678   1.413       .  A
C1673      H1680   1.083       .  S
C1674      C1675   1.449       .  A
C1675      C1682   1.504       .  S
C1675      C1676   1.422       .  A
C1676      C1677   1.399       .  A
C1677      C1678   1.438       .  A
C1678      C1679   1.535       .  S
C1679      F1683   1.384       .  S
C1679      F1684   1.373       .  S
C1679      F1685   1.380       .  S
C1682      F1686   1.358       .  S
C1682      F1687   1.379   1_545  S
C1682      F1688   1.380   1_655  S
C1689      C1690   1.430       .  A
C1689      C1694   1.417       .  A
C1689      H1696   1.079       .  S
C1690      C2245   1.610       .  S
C1690      C1691   1.433       .  A
C1691      C1698   1.525       .  S
C1691      C1692   1.417       .  A
C1692      C1693   1.416       .  A
C1692      H1697   1.083       .  S
C1693      C1694   1.442       .  A
C1694      C1695   1.528       .  S
C1695      F1699   1.380       .  S
C1695      F1700   1.375       .  S
C1695      F1701   1.386       .  S
C1698      F1702   1.383       .  S
C1698      F2423   1.367       .  S
C1698      F1704   1.370       .  S
F1703      C2418   1.367       .  S
C1705      C1706   1.410       .  A
C1705      C1710   1.409       .  A
C1705      H1712   1.076       .  S
C1706      C2067   1.439   1_554  A
C1707      C1714   1.533       .  S
C1707      C2066   1.439       .  A
C1707      C1708   1.422       .  A
C1708      C2069   1.411       .  A
C1708      H1713   1.081   1_655  S
C1709      C2068   1.411   1_554  A
C1709      C1710   1.446       .  A
C1710      C1711   1.537       .  S
C1711      F1715   1.386       .  S
C1711      F1716   1.379       .  S
C1711      F1717   1.377       .  S
C1714      F2078   1.376       .  S
C1714      F1719   1.371       .  S
C1714      F1720   1.367       .  S
F1718      C2074   1.376       .  S
C1721      C2082   1.414       .  A
C1721      C1726   1.420       .  A
C1721      H1728   1.084       .  S
C1722      C1803   1.590       .  S
C1722      C2081   1.414       .  A
C1722      C1723   1.440       .  A
C1723      C1730   1.534       .  S
C1723      C1724   1.405       .  A
C1724      C1725   1.412       .  A
C1724      H1729   1.075       .  S
C1725      C1804   1.583       .  S
C1725      C2086   1.439       .  A
C1726      C1727   1.523       .  S
C1726      C2085   1.439       .  A
C1727      F1731   1.384       .  S
C1727      F1732   1.373       .  S
C1727      F1733   1.384       .  S
C1730      F1734   1.375       .  S
C1730      F1735   1.378       .  S
C1730      F1736   1.387       .  S
C1737      C1738   1.420       .  A
C1737      C1742   1.414       .  A
C1737      H1744   1.072       .  S
C1738      C2099   1.450       .  A
C1739      C1746   1.534       .  S
C1739      C2098   1.450       .  A
C1739      C1740   1.414       .  A
C1740      C2101   1.413       .  A
C1740      H1745   1.081       .  S
C1741      C2100   1.413       .  A
C1741      C1742   1.418       .  A
C1742      C1743   1.522       .  S
C1743      F1747   1.383       .  S
C1743      F1748   1.380   1_545  S
C1743      F1749   1.384       .  S
C1746      F2110   1.371       .  S
C1746      F1751   1.380       .  S
C1746      F1752   1.383       .  S
F1750      C2106   1.371       .  S
C1753      C2114   1.420       .  A
C1753      C1758   1.422       .  A
C1753      H1760   1.072       .  S
C1754      C2162   1.598   1_556  S
C1754      C2113   1.420       .  A
C1754      C1755   1.448       .  A
C1755      C1762   1.538       .  S
C1755      C1756   1.412       .  A
C1756      C1757   1.415       .  A
C1756      H1761   1.085       .  S
C1757      C2118   1.434   1_556  A
C1758      C1759   1.523       .  S
C1758      C2117   1.434       .  A
C1759      F2123   1.379       .  S
C1759      F2124   1.378       .  S
C1759      F1765   1.377       .  S
C1762      F1766   1.384   1_556  S
C1762      F2127   1.369       .  S
C1762      F2128   1.384       .  S
F1763      C2119   1.379       .  S
F1764      C2119   1.378       .  S
F1767      C2122   1.369       .  S
F1768      C2122   1.384       .  S
C1769      C1770   1.414   1_556  A
C1769      C1774   1.414       .  A
C1769      H1776   1.083   1_655  S
C1770      C2131   1.433       .  A
C1771      C1778   1.530       .  S
C1771      C2130   1.433       .  A
C1771      C1772   1.403       .  A
C1772      C2133   1.416       .  A
C1772      H1777   1.082       .  S
C1773      C2161   1.563       .  S
C1773      C2132   1.416       .  A
C1773      C1774   1.435   1_554  A
C1774      C1775   1.527       .  S
C1775      F1779   1.384       .  S
C1775      F2860   1.373   1_545  S
C1775      F1781   1.383       .  S
C1778      F1782   1.386       .  S
C1778      F2143   1.375       .  S
C1778      F2144   1.383       .  S
F1780      C2855   1.373       .  S
F1783      C2138   1.375       .  S
F1784      C2138   1.383       .  S
C1785      C1786   1.415       .  A
C1785      C1790   1.402       .  A
C1785      H1792   1.082       .  S
C1786      C1801   1.562       .  S
C1786      C2147   1.439       .  A
C1787      C1794   1.533       .  S
C1787      C2146   1.439       .  A
C1787      C1788   1.413       .  A
C1788      C2149   1.413       .  A
C1788      H1793   1.081       .  S
C1789      C1806   1.559       .  S
C1789      C2148   1.413       .  A
C1789      C1790   1.430       .  A
C1790      C1791   1.530       .  S
C1791      F1795   1.384       .  S
C1791      F2156   1.374       .  S
C1791      F1797   1.381       .  S
C1794      F1798   1.374       .  S
C1794      F2879   1.376       .  S
C1794      F1800   1.384       .  S
F1796      C2151   1.374       .  S
F1799      C2874   1.376   1_545  S
C1801      C2207   1.538       .  S
C1801      C1892   1.534       .  S
C1801      C2853   1.563       .  S
C1802      C2625   1.536   1_545  S
C1802      C2101   1.585       .  S
C1802      C2834   1.598   1_545  S
C1803      C1920   1.518       .  S
C1803      C2098   1.587       .  S
C1804      C1931   1.529       .  S
C1805      C1959   1.521       .  S
C1805      C2117   1.591       .  S
C1806      C1944   1.532       .  S
C1806      C2066   1.579       .  S
O1807      C1810   1.271       .  A
O1807     Cd1812   2.504       .  S
C1808      O1817   1.262       .  A
C1808      O1813   1.272       .  A
O1809      C1815   1.264       .  A
C1810      C1889   1.545       .  S
C1811      O1814   1.269       .  A
C1811      C1828   1.468       .  S
Cd1812     O1817   2.452       .  S
Cd1812     O1813   2.514       .  S
Cd1812     O1814   2.562       .  S
C1815      O1819   1.260       .  A
C1815      C1841   1.442       .  S
O1820      C1823   1.271       .  A
O1820     Cd1825   2.485       .  S
C1821      O1830   1.269       .  A
C1821      O1826   1.264       .  A
C1823      C1888   1.529       .  S
C1823      O1831   1.261       .  A
C1824      O1829   1.264       .  A
C1824      O1827   1.254       .  A
C1824      C1854   1.447       .  S
Cd1825     O1832   2.534       .  S
Cd1825     O1831   2.448       .  S
Cd1825     O1830   2.511       .  S
Cd1825     O1826   2.409       .  S
C1828      O1832   1.271       .  A
O1833      C1836   1.270       .  A
O1833     Cd1838   2.466       .  S
C1834      C1890   1.525       .  S
C1834      O1843   1.264       .  A
C1834      O1839   1.268       .  A
O1835      C1841   1.262       .  A
O1835     Cd1838   2.436       .  S
C1836      O1844   1.265       .  A
C1837      O1842   1.261       .  A
C1837      O1840   1.268       .  A
C1837      C1880   1.466       .  S
Cd1838     O1845   2.397       .  S
Cd1838     O1844   2.440       .  S
Cd1838     O1843   2.449       .  S
Cd1838     O1839   2.481       .  S
Cd1838     O1842   2.404       .  S
Cd1838     O1840   2.530       .  S
C1841      O1845   1.262       .  A
O1846      C2569   1.266       .  A
O1846     Cd2571   2.517       .  S
C1847      C2161   1.538   1_556  S
C1847      O1856   1.262       .  A
C1847      O2572   1.273   1_545  A
O1848      C1854   1.260       .  A
O1848     Cd1851   2.450       .  S
C1849      C1885   1.556       .  S
C1849      O2566   1.266       .  A
C1849      O1857   1.270       .  A
C1850      O1855   1.261       .  A
C1850      O2573   1.270   1_545  A
C1850      C1867   1.474       .  S
Cd1851     O2566   2.517       .  S
Cd1851     O1858   2.409       .  S
Cd1851     O1857   2.509       .  S
Cd1851     O1856   2.431       .  S
Cd1851     O2572   2.503   1_545  S
Cd1851     O1855   2.403       .  S
Cd1851     O2573   2.562   1_545  S
O1852      C2567   1.273       .  A
O1852     Cd2571   2.503       .  S
O1853      C2570   1.270       .  A
O1853     Cd2571   2.562       .  S
C1854      O1858   1.263       .  A
O1859      C2582   1.270       .  A
O1859     Cd2584   2.476       .  S
C1860      O1869   1.271       .  A
C1860      O2585   1.266       .  A
O1861      C1867   1.260       .  A
O1861     Cd1864   2.396       .  S
C1862      C1886   1.526       .  S
C1862      O2579   1.270   1_545  A
C1862      O1870   1.263       .  A
C1863      O1868   1.262       .  A
C1863      O1866   1.257       .  A
C1863      C1876   1.437       .  S
Cd1864     O2579   2.476   1_545  S
Cd1864     O2591   2.564   1_545  S
Cd1864     O1870   2.437       .  S
Cd1864     O1869   2.492       .  S
Cd1864     O2585   2.494       .  S
Cd1864     O1868   2.470       .  S
Cd1864     O1866   2.340       .  S
O1865      C2580   1.266       .  A
O1865     Cd2584   2.494       .  S
C1867      O2591   1.271   1_545  A
O1871      C2587   1.271       .  A
O1871     Cd2584   2.564       .  S
O1872      C1875   1.265       .  A
O1872     Cd1877   2.457       .  S
C1873      C1887   1.529       .  S
C1873      O1882   1.261       .  A
C1873      O1878   1.268       .  A
O1874      C1880   1.263       .  A
O1874     Cd1877   2.389       .  S
C1875      O1883   1.270       .  A
C1876      O1881   1.264       .  A
C1876      O1879   1.256       .  A
Cd1877     O1884   2.516       .  S
Cd1877     O1883   2.486       .  S
Cd1877     O1882   2.415       .  S
Cd1877     O1878   2.481       .  S
Cd1877     O1881   2.484       .  S
Cd1877     O1879   2.318       .  S
C1880      O1884   1.271       .  A
C1885      C2614   1.529       .  S
C1885      C2034   1.612       .  S
C1885      C2770   1.610   1_545  S
C1886      C1907   1.529   1_545  S
C1886      C2002   1.585       .  S
C1886      C2741   1.565   1_545  S
C1887      C1918   1.516       .  S
C1887      C1986   1.580       .  S
C1887      C2005   1.572       .  S
C1888      C1933   1.533       .  S
C1888      C1989   1.603       .  S
C1889      C1957   1.531       .  S
C1889      C2018   1.568       .  S
C1890      C1946   1.525       .  S
C1890      C1973   1.571       .  S
C1890      C2053   1.575       .  S
O1891      C2614   1.272       .  A
O1891     Cd2616   2.523   1_545  S
C1892      O1901   1.268       .  A
C1892      O2617   1.261       .  A
O1893      C1899   1.262       .  A
O1893     Cd1896   2.448       .  S
C1894      C2605   1.529       .  S
C1894      O2611   1.272       .  A
C1894      O1902   1.264       .  A
C1895      O1900   1.257       .  A
C1895      O2618   1.271       .  A
C1895      C1912   1.462       .  S
Cd1896     O2611   2.523       .  S
Cd1896     O1903   2.430       .  S
Cd1896     O1902   2.459       .  S
Cd1896     O1901   2.522       .  S
Cd1896     O2617   2.439       .  S
Cd1896     O1900   2.350       .  S
Cd1896     O2618   2.548       .  S
O1897      C2612   1.261       .  A
O1897     Cd2616   2.439   1_545  S
O1898      C2615   1.271   1_545  A
O1898     Cd2616   2.548   1_545  S
C1899      O1903   1.263       .  A
C1899      C1947   1.450       .  S
O1904      C1907   1.266       .  A
O1904     Cd2629   2.433       .  S
C1905      C2522   1.537       .  S
C1905      O1914   1.257       .  A
C1905      O2630   1.274       .  A
O1906      C1912   1.261       .  A
O1906     Cd1909   2.362       .  S
C1907      O2635   1.268   1_565  A
C1908      O1913   1.262       .  A
C1908      O1911   1.262       .  A
C1908      C1960   1.446       .  S
Cd1909     O2624   2.433       .  S
Cd1909     O2636   2.538       .  S
Cd1909     O1915   2.491       .  S
Cd1909     O1914   2.412       .  S
Cd1909     O2630   2.508       .  S
Cd1909     O1913   2.428       .  S
Cd1909     O1911   2.409       .  S
O1910      C2625   1.274   1_545  A
O1910     Cd2629   2.508   1_545  S
C1912      O2636   1.269       .  A
O1915      C2627   1.268       .  A
O1916      C2632   1.269   1_545  A
O1916     Cd2629   2.538   1_545  S
O1917      C1920   1.269       .  A
O1917     Cd1922   2.452       .  S
C1918      O1927   1.269       .  A
C1918      O1923   1.264       .  A
O1919      C1925   1.260       .  A
O1919     Cd1922   2.363       .  S
C1920      O1928   1.262       .  A
C1921      O1926   1.261       .  A
C1921      O1924   1.263       .  A
C1921      C1934   1.436       .  S
Cd1922     O1929   2.525       .  S
Cd1922     O1928   2.431       .  S
Cd1922     O1927   2.464       .  S
Cd1922     O1923   2.452       .  S
Cd1922     O1926   2.398       .  S
Cd1922     O1924   2.401       .  S
C1925      O1929   1.270       .  A
C1925      C1951   1.460       .  S
O1930      C1933   1.271       .  A
O1930     Cd1935   2.467       .  S
C1931      O1940   1.264       .  A
C1931      O1936   1.268       .  A
O1932      C1938   1.256       .  A
O1932     Cd1935   2.369       .  S
C1933      O1941   1.261       .  A
C1934      O1939   1.263       .  A
C1934      O1937   1.260       .  A
Cd1935     O1942   2.561       .  S
Cd1935     O1941   2.461       .  S
Cd1935     O1940   2.454       .  S
Cd1935     O1936   2.475       .  S
Cd1935     O1939   2.411       .  S
Cd1935     O1937   2.384       .  S
C1938      O1942   1.269       .  A
C1938      C1964   1.465       .  S
O1943      C1946   1.261       .  A
O1943     Cd1948   2.447       .  S
C1944      O1953   1.270       .  A
C1944      O1949   1.264       .  A
O1945      C1951   1.263       .  A
O1945     Cd1948   2.356       .  S
C1946      O1954   1.266       .  A
C1947      O1952   1.264       .  A
C1947      O1950   1.257       .  A
Cd1948     O1955   2.512       .  S
Cd1948     O1954   2.516       .  S
Cd1948     O1953   2.504       .  S
Cd1948     O1949   2.432       .  S
Cd1948     O1952   2.467       .  S
Cd1948     O1950   2.408       .  S
C1951      O1955   1.272       .  A
O1956      C1959   1.262       .  A
O1956     Cd1961   2.454       .  S
C1957      O1966   1.268       .  A
C1957      O1962   1.262       .  A
O1958      C1964   1.263       .  A
O1958     Cd1961   2.362       .  S
C1959      O1967   1.268       .  A
C1960      O1965   1.262       .  A
C1960      O1963   1.260       .  A
Cd1961     O1968   2.532       .  S
Cd1961     O1967   2.501       .  S
Cd1961     O1966   2.512       .  S
Cd1961     O1962   2.423       .  S
Cd1961     O1965   2.438       .  S
Cd1961     O1963   2.424       .  S
C1964      O1968   1.272       .  A
C1969      C1970   1.415       .  A
C1969      C1974   1.407       .  A
C1969      H1976   1.078       .  S
C1970      C1971   1.433       .  A
C1971      C1972   1.416       .  A
C1972      C1973   1.410       .  A
C1972      H1977   1.084       .  S
C1973      C1974   1.435       .  A
C1974      C1975   1.531       .  S
C1975      F1979   1.387       .  S
C1975      F1980   1.382       .  S
C1975      F1981   1.377       .  S
C1978      F1982   1.384       .  S
C1978      F1983   1.368       .  S
C1985      C1986   1.412       .  A
C1985      C1990   1.413       .  A
C1985      H1992   1.085       .  S
C1986      C1987   1.424       .  A
C1987      C1994   1.523       .  S
C1987      C1988   1.418       .  A
C1988      C1989   1.421       .  A
C1988      H1993   1.075       .  S
C1989      C1990   1.451       .  A
C1990      C1991   1.539       .  S
C1991      F1995   1.385       .  S
C1991      F1996   1.371       .  S
C1991      F1997   1.383       .  S
C1994      F1998   1.380       .  S
C1994      F1999   1.378       .  S
C1994      F2000   1.374       .  S
C2001      C2002   1.417       .  A
C2001      C2006   1.405       .  A
C2001      H2008   1.075       .  S
C2002      C2003   1.440       .  A
C2003      C2010   1.526       .  S
C2003      C2004   1.419       .  A
C2004      C2005   1.412       .  A
C2004      H2009   1.085       .  S
C2005      C2006   1.436       .  A
C2006      C2007   1.533       .  S
C2007      F2011   1.387       .  S
C2007      F2012   1.377       .  S
C2007      F2013   1.375       .  S
C2010      F2014   1.372   1_545  S
C2010      F2735   1.383       .  S
C2010      F2016   1.384       .  S
F2015      C2730   1.383       .  S
C2017      C2018   1.409       .  A
C2017      C2022   1.403       .  A
C2017      H2024   1.083       .  S
C2018      C2019   1.436       .  A
C2019      C2026   1.529       .  S
C2019      C2020   1.416       .  A
C2020      C2021   1.416       .  A
C2020      H2025   1.079       .  S
C2021      C2606   1.565       .  S
C2021      C2022   1.440       .  A
C2022      C2023   1.534       .  S
C2023      F2027   1.383       .  S
C2023      F2028   1.373       .  S
C2023      F2029   1.385       .  S
C2026      F2030   1.379       .  S
C2026      F2031   1.378       .  S
C2026      F2032   1.386       .  S
C2033      C2034   1.424       .  A
C2033      C2038   1.413       .  A
C2033      H2040   1.083       .  S
C2034      C2035   1.449       .  A
C2035      C2042   1.504       .  S
C2035      C2036   1.422       .  A
C2036      C2037   1.399       .  A
C2037      C2038   1.438       .  A
C2038      C2039   1.535       .  S
C2039      F2043   1.384       .  S
C2039      F2044   1.373       .  S
C2039      F2045   1.380       .  S
C2042      F2046   1.358       .  S
C2042      F2047   1.379   1_545  S
C2042      F2048   1.380   1_655  S
C2049      C2050   1.430       .  A
C2049      C2054   1.417       .  A
C2049      H2056   1.079       .  S
C2050      C2605   1.610       .  S
C2050      C2051   1.433       .  A
C2051      C2058   1.525       .  S
C2051      C2052   1.417       .  A
C2052      C2053   1.416       .  A
C2052      H2057   1.083       .  S
C2053      C2054   1.442       .  A
C2054      C2055   1.528       .  S
C2055      F2059   1.380       .  S
C2055      F2060   1.375       .  S
C2055      F2061   1.386       .  S
C2058      F2062   1.383       .  S
C2058      F2783   1.367       .  S
C2058      F2064   1.370       .  S
F2063      C2778   1.367       .  S
C2065      C2066   1.410       .  A
C2065      C2070   1.409       .  A
C2065      H2072   1.076       .  S
C2067      C2074   1.533       .  S
C2067      C2068   1.422       .  A
C2068      H2073   1.081   1_655  S
C2069      C2070   1.446       .  A
C2070      C2071   1.537       .  S
C2071      F2075   1.386       .  S
C2071      F2076   1.379       .  S
C2071      F2077   1.377       .  S
C2074      F2079   1.371       .  S
C2074      F2080   1.367       .  S
C2081      C2086   1.420       .  A
C2081      H2088   1.084       .  S
C2082      C2083   1.440   1_554  A
C2083      C2090   1.534       .  S
C2083      C2084   1.405       .  A
C2084      C2085   1.412   1_556  A
C2084      H2089   1.075       .  S
C2086      C2087   1.523       .  S
C2087      F2091   1.384       .  S
C2087      F2092   1.373       .  S
C2087      F2093   1.384       .  S
C2090      F2094   1.375       .  S
C2090      F2095   1.378       .  S
C2090      F2096   1.387       .  S
C2097      C2098   1.420       .  A
C2097      C2102   1.414       .  A
C2097      H2104   1.072       .  S
C2099      C2106   1.534       .  S
C2099      C2100   1.414       .  A
C2100      H2105   1.081   1_554  S
C2101      C2102   1.418       .  A
C2102      C2103   1.522       .  S
C2103      F2107   1.383       .  S
C2103      F2108   1.380   1_545  S
C2103      F2109   1.384       .  S
C2106      F2111   1.380   1_554  S
C2106      F2112   1.383       .  S
C2113      C2118   1.422   1_556  A
C2113      H2120   1.072       .  S
C2114      C2522   1.598       .  S
C2114      C2115   1.448       .  A
C2115      C2122   1.538       .  S
C2115      C2116   1.412       .  A
C2116      C2117   1.415       .  A
C2116      H2121   1.085       .  S
C2118      C2119   1.523       .  S
C2119      F2125   1.377   1_554  S
C2122      F2126   1.384       .  S
C2129      C2130   1.414       .  A
C2129      C2134   1.414       .  A
C2129      H2136   1.083   1_655  S
C2131      C2138   1.530       .  S
C2131      C2132   1.403       .  A
C2132      H2137   1.082       .  S
C2133      C2521   1.563       .  S
C2133      C2134   1.435       .  A
C2134      C2135   1.527       .  S
C2135      F2139   1.384       .  S
C2135      F2500   1.373   1_545  S
C2135      F2141   1.383       .  S
C2138      F2142   1.386       .  S
F2140      C2495   1.373       .  S
C2145      C2146   1.415   1_556  A
C2145      C2150   1.402       .  A
C2145      H2152   1.082       .  S
C2147      C2154   1.533       .  S
C2147      C2148   1.413       .  A
C2148      H2153   1.081       .  S
C2149      C2150   1.430   1_554  A
C2150      C2151   1.530       .  S
C2151      F2155   1.384   1_556  S
C2151      F2157   1.381       .  S
C2154      F2158   1.374       .  S
C2154      F2519   1.376       .  S
C2154      F2160   1.384       .  S
F2159      C2514   1.376   1_545  S
C2161      C2252   1.534       .  S
C2161      C2866   1.562   1_545  S
C2162      C2580   1.532   1_554  S
C2162      C2461   1.585       .  S
C2163      C2595   1.521   1_554  S
C2163      C2280   1.518       .  S
C2163      C2802   1.590       .  S
C2163      C2458   1.587       .  S
C2164      C2541   1.534   1_554  S
C2164      C2291   1.529       .  S
C2164      C2805   1.583       .  S
C2165      C2528   1.540       .  S
C2165      C2319   1.521   1_556  S
C2165      C2477   1.591       .  S
C2166      C2556   1.529   1_554  S
C2166      C2304   1.532       .  S
C2166      C2426   1.579       .  S
C2166      C2869   1.559       .  S
O2167      C2170   1.271       .  A
O2167     Cd2172   2.503       .  S
C2168      C2525   1.540       .  S
C2168      O2177   1.262       .  A
C2168      O2173   1.272       .  A
O2169      C2175   1.264       .  A
C2170      C2249   1.545       .  S
C2171      O2174   1.269       .  A
C2171      C2188   1.468       .  S
Cd2172     O2177   2.452       .  S
Cd2172     O2173   2.514       .  S
Cd2172     O2174   2.562       .  S
C2175      O2179   1.260       .  A
C2175      C2201   1.442       .  S
O2180      C2183   1.271       .  A
O2180     Cd2185   2.485       .  S
C2181      C2524   1.534       .  S
C2181      O2190   1.269       .  A
C2181      O2186   1.264       .  A
C2183      C2248   1.529       .  S
C2183      O2191   1.261       .  A
C2184      O2189   1.264       .  A
C2184      O2187   1.254       .  A
C2184      C2214   1.447       .  S
Cd2185     O2192   2.534       .  S
Cd2185     O2191   2.448       .  S
Cd2185     O2190   2.511       .  S
Cd2185     O2186   2.409       .  S
C2188      O2192   1.271       .  A
O2193      C2196   1.270       .  A
O2193     Cd2198   2.466       .  S
C2194      C2250   1.525       .  S
C2194      O2203   1.264       .  A
C2194      O2199   1.268       .  A
O2195      C2201   1.262       .  A
O2195     Cd2198   2.436       .  S
C2196      C2526   1.529       .  S
C2196      O2204   1.265       .  A
C2197      O2202   1.261       .  A
C2197      O2200   1.268       .  A
C2197      C2240   1.466       .  S
Cd2198     O2205   2.397       .  S
Cd2198     O2204   2.440       .  S
Cd2198     O2203   2.449       .  S
Cd2198     O2199   2.481       .  S
Cd2198     O2202   2.404       .  S
Cd2198     O2200   2.530       .  S
C2201      O2205   1.262       .  A
C2207      O2216   1.262       .  A
O2208      C2214   1.260       .  A
O2208     Cd2211   2.450       .  S
C2209      C2245   1.555       .  S
C2209      O2217   1.270       .  A
C2210      O2215   1.261       .  A
C2210      C2227   1.474       .  S
Cd2211     O2218   2.409       .  S
Cd2211     O2217   2.509       .  S
Cd2211     O2216   2.431       .  S
Cd2211     O2215   2.403       .  S
C2214      O2218   1.263       .  A
C2220      C2522   1.532       .  S
C2220      O2229   1.271       .  A
O2221      C2227   1.260       .  A
O2221     Cd2224   2.396       .  S
C2222      C2246   1.526       .  S
C2222      O2230   1.263       .  A
C2223      O2228   1.262       .  A
C2223      O2226   1.257       .  A
C2223      C2236   1.437       .  S
Cd2224     O2230   2.437       .  S
Cd2224     O2229   2.492       .  S
Cd2224     O2228   2.469       .  S
Cd2224     O2226   2.340       .  S
O2232      C2235   1.265       .  A
O2232     Cd2237   2.457       .  S
C2233      C2247   1.529       .  S
C2233      O2242   1.261       .  A
C2233      O2238   1.268       .  A
O2234      C2240   1.263       .  A
O2234     Cd2237   2.389       .  S
C2235      C2523   1.521       .  S
C2235      O2243   1.270       .  A
C2236      O2241   1.264       .  A
C2236      O2239   1.256       .  A
Cd2237     O2244   2.516       .  S
Cd2237     O2243   2.485       .  S
Cd2237     O2242   2.415       .  S
Cd2237     O2238   2.481       .  S
Cd2237     O2241   2.484       .  S
Cd2237     O2239   2.318       .  S
C2240      O2244   1.271       .  A
C2245      C2394   1.612       .  S
C2246      C2267   1.529       .  S
C2246      C2362   1.585       .  S
C2247      C2278   1.516       .  S
C2247      C2346   1.580       .  S
C2247      C2365   1.572       .  S
C2248      C2293   1.533       .  S
C2248      C2349   1.603       .  S
C2249      C2317   1.531       .  S
C2249      C2378   1.568       .  S
C2250      C2306   1.525       .  S
C2250      C2333   1.571       .  S
C2250      C2413   1.575       .  S
C2252      O2261   1.268   1_545  A
O2253      C2259   1.262       .  A
O2253     Cd2256   2.448       .  S
C2254      O2262   1.264   1_545  A
C2255      O2260   1.257       .  A
C2255      C2272   1.462       .  S
Cd2256     O2263   2.430       .  S
Cd2256     O2262   2.459       .  S
Cd2256     O2261   2.522       .  S
Cd2256     O2260   2.350       .  S
C2259      O2263   1.263       .  A
C2259      C2307   1.450       .  S
O2264      C2267   1.266       .  A
C2265      O2274   1.257       .  A
O2266      C2272   1.261       .  A
O2266     Cd2269   2.362       .  S
C2268      O2273   1.262       .  A
C2268      O2271   1.262       .  A
C2268      C2320   1.446       .  S
Cd2269     O2275   2.491   1_565  S
Cd2269     O2274   2.412       .  S
Cd2269     O2273   2.428       .  S
Cd2269     O2271   2.409       .  S
O2277      C2280   1.269       .  A
O2277     Cd2282   2.452       .  S
C2278      O2287   1.269       .  A
C2278      O2283   1.264       .  A
O2279      C2285   1.260       .  A
O2279     Cd2282   2.363       .  S
C2280      O2288   1.262       .  A
C2281      O2286   1.261       .  A
C2281      O2284   1.263       .  A
C2281      C2294   1.436       .  S
Cd2282     O2289   2.525       .  S
Cd2282     O2288   2.431       .  S
Cd2282     O2287   2.465       .  S
Cd2282     O2283   2.452       .  S
Cd2282     O2286   2.398       .  S
Cd2282     O2284   2.401       .  S
C2285      O2289   1.270       .  A
C2285      C2311   1.460       .  S
O2290      C2293   1.271       .  A
O2290     Cd2295   2.467       .  S
C2291      O2300   1.264       .  A
C2291      O2296   1.268       .  A
O2292      C2298   1.256       .  A
O2292     Cd2295   2.369       .  S
C2293      O2301   1.261       .  A
C2294      O2299   1.263       .  A
C2294      O2297   1.260       .  A
Cd2295     O2302   2.561       .  S
Cd2295     O2301   2.461       .  S
Cd2295     O2300   2.454       .  S
Cd2295     O2296   2.475       .  S
Cd2295     O2299   2.411       .  S
Cd2295     O2297   2.384       .  S
C2298      O2302   1.269       .  A
C2298      C2324   1.465       .  S
O2303      C2306   1.261       .  A
O2303     Cd2308   2.447       .  S
C2304      O2313   1.270       .  A
C2304      O2309   1.264       .  A
O2305      C2311   1.263       .  A
O2305     Cd2308   2.356       .  S
C2306      O2314   1.266       .  A
C2307      O2312   1.264       .  A
C2307      O2310   1.257       .  A
Cd2308     O2315   2.512       .  S
Cd2308     O2314   2.516       .  S
Cd2308     O2313   2.504       .  S
Cd2308     O2309   2.432       .  S
Cd2308     O2312   2.467       .  S
Cd2308     O2310   2.408       .  S
C2311      O2315   1.272       .  A
O2316      C2319   1.262       .  A
O2316     Cd2321   2.454       .  S
C2317      O2326   1.268       .  A
C2317      O2322   1.262       .  A
O2318      C2324   1.263       .  A
O2318     Cd2321   2.362       .  S
C2319      O2327   1.268       .  A
C2320      O2325   1.262       .  A
C2320      O2323   1.260       .  A
Cd2321     O2328   2.532       .  S
Cd2321     O2327   2.501       .  S
Cd2321     O2326   2.512       .  S
Cd2321     O2322   2.423       .  S
Cd2321     O2325   2.438       .  S
Cd2321     O2323   2.424       .  S
C2324      O2328   1.272       .  A
C2329      C2330   1.415       .  A
C2329      C2334   1.407       .  A
C2329      H2336   1.078       .  S
C2330      C2331   1.433       .  A
C2331      C2332   1.416       .  A
C2332      C2333   1.410       .  A
C2332      H2337   1.084       .  S
C2333      C2334   1.435       .  A
C2334      C2335   1.531       .  S
C2335      F2339   1.387       .  S
C2335      F2340   1.382       .  S
C2335      F2341   1.377       .  S
C2338      F2342   1.384       .  S
C2338      F2343   1.368       .  S
C2345      C2346   1.412       .  A
C2345      C2350   1.413       .  A
C2345      H2352   1.085       .  S
C2346      C2347   1.424       .  A
C2347      C2354   1.523       .  S
C2347      C2348   1.418       .  A
C2348      C2349   1.421       .  A
C2348      H2353   1.075       .  S
C2349      C2350   1.451       .  A
C2350      C2351   1.539       .  S
C2351      F2355   1.385       .  S
C2351      F2356   1.371       .  S
C2351      F2357   1.383       .  S
C2354      F2358   1.380       .  S
C2354      F2359   1.378       .  S
C2354      F2360   1.374       .  S
C2361      C2362   1.417       .  A
C2361      C2366   1.405       .  A
C2361      H2368   1.075       .  S
C2362      C2363   1.440       .  A
C2363      C2370   1.526       .  S
C2363      C2364   1.419       .  A
C2364      C2365   1.412       .  A
C2364      H2369   1.085       .  S
C2365      C2366   1.436       .  A
C2366      C2367   1.533       .  S
C2367      F2371   1.387       .  S
C2367      F2372   1.377       .  S
C2367      F2373   1.375       .  S
C2370      F2374   1.372       .  S
C2370      F2376   1.384       .  S
C2377      C2378   1.409       .  A
C2377      C2382   1.403       .  A
C2377      H2384   1.083       .  S
C2378      C2379   1.436       .  A
C2379      C2386   1.529       .  S
C2379      C2380   1.416       .  A
C2380      C2381   1.416       .  A
C2380      H2385   1.079       .  S
C2381      C2382   1.440       .  A
C2382      C2383   1.534       .  S
C2383      F2387   1.383       .  S
C2383      F2388   1.373       .  S
C2383      F2389   1.385       .  S
C2386      F2390   1.379       .  S
C2386      F2391   1.378       .  S
C2386      F2392   1.386       .  S
C2393      C2394   1.424       .  A
C2393      C2398   1.413       .  A
C2393      H2400   1.083       .  S
C2394      C2395   1.449       .  A
C2395      C2402   1.504       .  S
C2395      C2396   1.422       .  A
C2396      C2397   1.399       .  A
C2397      C2398   1.438       .  A
C2398      C2399   1.535       .  S
C2399      F2403   1.384       .  S
C2399      F2404   1.373       .  S
C2399      F2405   1.380       .  S
C2402      F2406   1.358       .  S
C2402      F2407   1.379       .  S
C2402      F2408   1.380   1_655  S
C2409      C2410   1.430       .  A
C2409      C2414   1.417       .  A
C2409      H2416   1.079       .  S
C2410      C2411   1.433       .  A
C2411      C2418   1.525       .  S
C2411      C2412   1.417       .  A
C2412      C2413   1.416       .  A
C2412      H2417   1.083       .  S
C2413      C2414   1.442       .  A
C2414      C2415   1.528       .  S
C2415      F2419   1.380       .  S
C2415      F2420   1.375       .  S
C2415      F2421   1.386       .  S
C2418      F2422   1.383       .  S
C2418      F2424   1.370       .  S
C2425      C2426   1.410       .  A
C2425      C2430   1.409       .  A
C2425      H2432   1.076       .  S
C2426      C2787   1.439   1_554  A
C2427      C2434   1.533       .  S
C2427      C2786   1.439       .  A
C2427      C2428   1.422       .  A
C2428      C2789   1.411       .  A
C2428      H2433   1.081   1_655  S
C2429      C2788   1.411   1_554  A
C2429      C2430   1.446       .  A
C2430      C2431   1.537       .  S
C2431      F2435   1.386       .  S
C2431      F2436   1.379       .  S
C2431      F2437   1.377       .  S
C2434      F2798   1.376       .  S
C2434      F2439   1.371       .  S
C2434      F2440   1.367       .  S
F2438      C2794   1.376       .  S
C2441      C2802   1.414       .  A
C2441      C2446   1.420       .  A
C2441      H2448   1.084       .  S
C2442      C2523   1.590       .  S
C2442      C2801   1.414       .  A
C2442      C2443   1.440       .  A
C2443      C2450   1.534       .  S
C2443      C2444   1.405       .  A
C2444      C2445   1.412       .  A
C2444      H2449   1.075       .  S
C2445      C2524   1.583       .  S
C2445      C2806   1.439       .  A
C2446      C2447   1.523       .  S
C2446      C2805   1.439       .  A
C2447      F2451   1.384       .  S
C2447      F2452   1.373       .  S
C2447      F2453   1.384       .  S
C2450      F2454   1.375       .  S
C2450      F2455   1.378       .  S
C2450      F2456   1.387       .  S
C2457      C2458   1.420       .  A
C2457      C2462   1.414       .  A
C2457      H2464   1.072       .  S
C2458      C2819   1.450       .  A
C2459      C2466   1.534       .  S
C2459      C2818   1.450       .  A
C2459      C2460   1.414       .  A
C2460      C2821   1.413       .  A
C2460      H2465   1.081       .  S
C2461      C2820   1.413       .  A
C2461      C2462   1.418       .  A
C2462      C2463   1.522       .  S
C2463      F2467   1.383       .  S
C2463      F2468   1.380       .  S
C2463      F2469   1.384       .  S
C2466      F2830   1.371       .  S
C2466      F2471   1.380       .  S
C2466      F2472   1.383       .  S
F2470      C2826   1.371       .  S
C2473      C2834   1.420       .  A
C2473      C2478   1.422       .  A
C2473      H2480   1.072       .  S
C2474      C2833   1.420       .  A
C2474      C2475   1.448       .  A
C2475      C2482   1.538       .  S
C2475      C2476   1.412       .  A
C2476      C2477   1.415       .  A
C2476      H2481   1.085       .  S
C2477      C2838   1.434   1_556  A
C2478      C2479   1.523       .  S
C2478      C2837   1.434       .  A
C2479      F2843   1.379       .  S
C2479      F2844   1.378       .  S
C2479      F2485   1.377       .  S
C2482      F2486   1.384   1_556  S
C2482      F2847   1.369       .  S
C2482      F2848   1.384       .  S
F2483      C2839   1.379       .  S
F2484      C2839   1.378       .  S
F2487      C2842   1.369       .  S
F2488      C2842   1.384       .  S
C2489      C2490   1.414   1_556  A
C2489      C2494   1.414       .  A
C2489      H2496   1.083   1_655  S
C2490      C2851   1.433       .  A
C2491      C2498   1.530       .  S
C2491      C2850   1.433       .  A
C2491      C2492   1.403       .  A
C2492      C2853   1.416       .  A
C2492      H2497   1.082       .  S
C2493      C2852   1.416       .  A
C2493      C2494   1.435   1_554  A
C2494      C2495   1.527       .  S
C2495      F2499   1.384       .  S
C2495      F2501   1.383       .  S
C2498      F2502   1.386       .  S
C2498      F2863   1.375       .  S
C2498      F2864   1.383       .  S
F2503      C2858   1.375       .  S
F2504      C2858   1.383       .  S
C2505      C2506   1.415       .  A
C2505      C2510   1.402       .  A
C2505      H2512   1.082       .  S
C2506      C2521   1.562   1_565  S
C2506      C2867   1.439       .  A
C2507      C2514   1.533       .  S
C2507      C2866   1.439       .  A
C2507      C2508   1.413       .  A
C2508      C2869   1.413       .  A
C2508      H2513   1.081       .  S
C2509      C2526   1.559       .  S
C2509      C2868   1.413       .  A
C2509      C2510   1.430       .  A
C2510      C2511   1.530       .  S
C2511      F2515   1.384       .  S
C2511      F2876   1.374       .  S
C2511      F2517   1.381       .  S
C2514      F2518   1.374   1_565  S
C2514      F2520   1.384       .  S
F2516      C2871   1.374       .  S
C2521      C2612   1.534       .  S
C2522      C2821   1.585       .  S
C2523      C2640   1.518       .  S
C2523      C2818   1.587       .  S
C2524      C2651   1.529       .  S
C2525      C2679   1.521       .  S
C2525      C2837   1.591       .  S
C2526      C2664   1.532       .  S
C2526      C2786   1.579       .  S
O2527      C2530   1.271       .  A
O2527     Cd2532   2.504       .  S
C2528      O2537   1.262       .  A
C2528      O2533   1.272       .  A
O2529      C2535   1.264       .  A
C2530      C2609   1.545       .  S
C2531      O2534   1.269       .  A
C2531      C2548   1.468       .  S
Cd2532     O2537   2.452       .  S
Cd2532     O2533   2.514       .  S
Cd2532     O2534   2.562       .  S
C2535      O2539   1.260       .  A
C2535      C2561   1.442       .  S
O2540      C2543   1.271       .  A
O2540     Cd2545   2.485       .  S
C2541      O2550   1.269       .  A
C2541      O2546   1.264       .  A
C2543      C2608   1.529       .  S
C2543      O2551   1.261       .  A
C2544      O2549   1.264       .  A
C2544      O2547   1.254       .  A
C2544      C2574   1.447       .  S
Cd2545     O2552   2.534       .  S
Cd2545     O2551   2.448       .  S
Cd2545     O2550   2.511       .  S
Cd2545     O2546   2.409       .  S
C2548      O2552   1.271       .  A
O2553      C2556   1.270       .  A
O2553     Cd2558   2.466       .  S
C2554      C2610   1.525       .  S
C2554      O2563   1.264       .  A
C2554      O2559   1.268       .  A
O2555      C2561   1.262       .  A
O2555     Cd2558   2.436       .  S
C2556      O2564   1.265       .  A
C2557      O2562   1.261       .  A
C2557      O2560   1.268       .  A
C2557      C2600   1.466       .  S
Cd2558     O2565   2.397       .  S
Cd2558     O2564   2.440       .  S
Cd2558     O2563   2.449       .  S
Cd2558     O2559   2.481       .  S
Cd2558     O2562   2.404       .  S
Cd2558     O2560   2.530       .  S
C2561      O2565   1.262       .  A
C2567      O2576   1.262       .  A
O2568      C2574   1.260       .  A
O2568     Cd2571   2.450       .  S
C2569      C2605   1.555       .  S
C2569      O2577   1.270       .  A
C2570      O2575   1.261       .  A
C2570      C2587   1.474       .  S
Cd2571     O2578   2.409       .  S
Cd2571     O2577   2.509       .  S
Cd2571     O2576   2.431       .  S
Cd2571     O2575   2.403       .  S
C2574      O2578   1.263       .  A
C2580      O2589   1.271       .  A
O2581      C2587   1.260       .  A
O2581     Cd2584   2.396       .  S
C2582      C2606   1.526       .  S
C2582      O2590   1.263       .  A
C2583      O2588   1.262       .  A
C2583      O2586   1.257       .  A
C2583      C2596   1.437       .  S
Cd2584     O2590   2.437       .  S
Cd2584     O2589   2.492       .  S
Cd2584     O2588   2.469       .  S
Cd2584     O2586   2.340       .  S
O2592      C2595   1.265       .  A
O2592     Cd2597   2.457       .  S
C2593      C2607   1.529       .  S
C2593      O2602   1.261       .  A
C2593      O2598   1.268       .  A
O2594      C2600   1.263       .  A
O2594     Cd2597   2.389       .  S
C2595      O2603   1.270       .  A
C2596      O2601   1.264       .  A
C2596      O2599   1.256       .  A
Cd2597     O2604   2.516       .  S
Cd2597     O2603   2.485       .  S
Cd2597     O2602   2.415       .  S
Cd2597     O2598   2.481       .  S
Cd2597     O2601   2.484       .  S
Cd2597     O2599   2.318       .  S
C2600      O2604   1.271       .  A
C2605      C2754   1.612       .  S
C2606      C2627   1.529       .  S
C2606      C2722   1.585       .  S
C2607      C2638   1.516       .  S
C2607      C2706   1.580       .  S
C2607      C2725   1.572       .  S
C2608      C2653   1.533       .  S
C2608      C2709   1.603       .  S
C2609      C2677   1.531       .  S
C2609      C2738   1.568       .  S
C2610      C2666   1.525       .  S
C2610      C2693   1.571       .  S
C2610      C2773   1.575       .  S
C2612      O2621   1.268   1_545  A
O2613      C2619   1.262       .  A
O2613     Cd2616   2.448       .  S
C2614      O2622   1.264   1_545  A
C2615      O2620   1.257       .  A
C2615      C2632   1.462       .  S
Cd2616     O2623   2.430       .  S
Cd2616     O2622   2.459       .  S
Cd2616     O2621   2.522       .  S
Cd2616     O2620   2.350       .  S
C2619      O2623   1.263       .  A
C2619      C2667   1.450       .  S
O2624      C2627   1.266       .  A
C2625      O2634   1.257       .  A
O2626      C2632   1.261       .  A
O2626     Cd2629   2.362       .  S
C2628      O2633   1.262       .  A
C2628      O2631   1.262       .  A
C2628      C2680   1.446       .  S
Cd2629     O2635   2.491   1_565  S
Cd2629     O2634   2.412       .  S
Cd2629     O2633   2.428       .  S
Cd2629     O2631   2.409       .  S
O2637      C2640   1.269       .  A
O2637     Cd2642   2.452       .  S
C2638      O2647   1.269       .  A
C2638      O2643   1.264       .  A
O2639      C2645   1.260       .  A
O2639     Cd2642   2.363       .  S
C2640      O2648   1.262       .  A
C2641      O2646   1.261       .  A
C2641      O2644   1.263       .  A
C2641      C2654   1.436       .  S
Cd2642     O2649   2.525       .  S
Cd2642     O2648   2.431       .  S
Cd2642     O2647   2.464       .  S
Cd2642     O2643   2.452       .  S
Cd2642     O2646   2.398       .  S
Cd2642     O2644   2.401       .  S
C2645      O2649   1.270       .  A
C2645      C2671   1.460       .  S
O2650      C2653   1.271       .  A
O2650     Cd2655   2.467       .  S
C2651      O2660   1.264       .  A
C2651      O2656   1.268       .  A
O2652      C2658   1.256       .  A
O2652     Cd2655   2.369       .  S
C2653      O2661   1.261       .  A
C2654      O2659   1.263       .  A
C2654      O2657   1.260       .  A
Cd2655     O2662   2.561       .  S
Cd2655     O2661   2.461       .  S
Cd2655     O2660   2.454       .  S
Cd2655     O2656   2.475       .  S
Cd2655     O2659   2.411       .  S
Cd2655     O2657   2.384       .  S
C2658      O2662   1.269       .  A
C2658      C2684   1.465       .  S
O2663      C2666   1.261       .  A
O2663     Cd2668   2.447       .  S
C2664      O2673   1.270       .  A
C2664      O2669   1.264       .  A
O2665      C2671   1.263       .  A
O2665     Cd2668   2.356       .  S
C2666      O2674   1.266       .  A
C2667      O2672   1.264       .  A
C2667      O2670   1.257       .  A
Cd2668     O2675   2.512       .  S
Cd2668     O2674   2.516       .  S
Cd2668     O2673   2.504       .  S
Cd2668     O2669   2.432       .  S
Cd2668     O2672   2.467       .  S
Cd2668     O2670   2.408       .  S
C2671      O2675   1.272       .  A
O2676      C2679   1.262       .  A
O2676     Cd2681   2.454       .  S
C2677      O2686   1.268       .  A
C2677      O2682   1.262       .  A
O2678      C2684   1.263       .  A
O2678     Cd2681   2.362       .  S
C2679      O2687   1.268       .  A
C2680      O2685   1.262       .  A
C2680      O2683   1.260       .  A
Cd2681     O2688   2.532       .  S
Cd2681     O2687   2.501       .  S
Cd2681     O2686   2.512       .  S
Cd2681     O2682   2.423       .  S
Cd2681     O2685   2.438       .  S
Cd2681     O2683   2.424       .  S
C2684      O2688   1.272       .  A
C2689      C2690   1.415       .  A
C2689      C2694   1.407       .  A
C2689      H2696   1.078       .  S
C2690      C2691   1.433       .  A
C2691      C2692   1.416       .  A
C2692      C2693   1.410       .  A
C2692      H2697   1.084       .  S
C2693      C2694   1.435       .  A
C2694      C2695   1.531       .  S
C2695      F2699   1.387       .  S
C2695      F2700   1.382       .  S
C2695      F2701   1.377       .  S
C2698      F2702   1.384       .  S
C2698      F2703   1.368       .  S
C2705      C2706   1.412       .  A
C2705      C2710   1.413       .  A
C2705      H2712   1.085       .  S
C2706      C2707   1.424       .  A
C2707      C2714   1.523       .  S
C2707      C2708   1.418       .  A
C2708      C2709   1.421       .  A
C2708      H2713   1.075       .  S
C2709      C2710   1.451       .  A
C2710      C2711   1.539       .  S
C2711      F2715   1.385       .  S
C2711      F2716   1.371       .  S
C2711      F2717   1.383       .  S
C2714      F2718   1.380       .  S
C2714      F2719   1.378       .  S
C2714      F2720   1.374       .  S
C2721      C2722   1.417       .  A
C2721      C2726   1.405       .  A
C2721      H2728   1.075       .  S
C2722      C2723   1.440       .  A
C2723      C2730   1.526       .  S
C2723      C2724   1.419       .  A
C2724      C2725   1.412       .  A
C2724      H2729   1.085       .  S
C2725      C2726   1.436       .  A
C2726      C2727   1.533       .  S
C2727      F2731   1.387       .  S
C2727      F2732   1.377       .  S
C2727      F2733   1.375       .  S
C2730      F2734   1.372       .  S
C2730      F2736   1.384       .  S
C2737      C2738   1.409       .  A
C2737      C2742   1.403       .  A
C2737      H2744   1.083       .  S
C2738      C2739   1.436       .  A
C2739      C2746   1.529       .  S
C2739      C2740   1.416       .  A
C2740      C2741   1.416       .  A
C2740      H2745   1.079       .  S
C2741      C2742   1.440       .  A
C2742      C2743   1.534       .  S
C2743      F2747   1.383       .  S
C2743      F2748   1.373       .  S
C2743      F2749   1.385       .  S
C2746      F2750   1.379       .  S
C2746      F2751   1.378       .  S
C2746      F2752   1.386       .  S
C2753      C2754   1.424       .  A
C2753      C2758   1.413       .  A
C2753      H2760   1.083       .  S
C2754      C2755   1.449       .  A
C2755      C2762   1.504       .  S
C2755      C2756   1.422       .  A
C2756      C2757   1.399       .  A
C2757      C2758   1.438       .  A
C2758      C2759   1.535       .  S
C2759      F2763   1.384       .  S
C2759      F2764   1.373       .  S
C2759      F2765   1.380       .  S
C2762      F2766   1.358       .  S
C2762      F2767   1.379       .  S
C2762      F2768   1.380   1_655  S
C2769      C2770   1.430       .  A
C2769      C2774   1.417       .  A
C2769      H2776   1.079       .  S
C2770      C2771   1.433       .  A
C2771      C2778   1.525       .  S
C2771      C2772   1.417       .  A
C2772      C2773   1.416       .  A
C2772      H2777   1.083       .  S
C2773      C2774   1.442       .  A
C2774      C2775   1.528       .  S
C2775      F2779   1.380       .  S
C2775      F2780   1.375       .  S
C2775      F2781   1.386       .  S
C2778      F2782   1.383       .  S
C2778      F2784   1.370       .  S
C2785      C2786   1.410       .  A
C2785      C2790   1.409       .  A
C2785      H2792   1.076       .  S
C2787      C2794   1.533       .  S
C2787      C2788   1.422       .  A
C2788      H2793   1.081   1_655  S
C2789      C2790   1.446       .  A
C2790      C2791   1.537       .  S
C2791      F2795   1.386       .  S
C2791      F2796   1.379       .  S
C2791      F2797   1.377       .  S
C2794      F2799   1.371       .  S
C2794      F2800   1.367       .  S
C2801      C2806   1.420       .  A
C2801      H2808   1.084       .  S
C2802      C2803   1.440   1_554  A
C2803      C2810   1.534       .  S
C2803      C2804   1.405       .  A
C2804      C2805   1.412   1_556  A
C2804      H2809   1.075       .  S
C2806      C2807   1.523       .  S
C2807      F2811   1.384       .  S
C2807      F2812   1.373       .  S
C2807      F2813   1.384       .  S
C2810      F2814   1.375       .  S
C2810      F2815   1.378       .  S
C2810      F2816   1.387       .  S
C2817      C2818   1.420       .  A
C2817      C2822   1.414       .  A
C2817      H2824   1.072       .  S
C2819      C2826   1.534       .  S
C2819      C2820   1.414       .  A
C2820      H2825   1.081   1_554  S
C2821      C2822   1.418       .  A
C2822      C2823   1.522       .  S
C2823      F2827   1.383       .  S
C2823      F2828   1.380       .  S
C2823      F2829   1.384       .  S
C2826      F2831   1.380   1_554  S
C2826      F2832   1.383       .  S
C2833      C2838   1.422   1_556  A
C2833      H2840   1.072       .  S
C2834      C2835   1.448       .  A
C2835      C2842   1.538       .  S
C2835      C2836   1.412       .  A
C2836      C2837   1.415       .  A
C2836      H2841   1.085       .  S
C2838      C2839   1.523       .  S
C2839      F2845   1.377   1_554  S
C2842      F2846   1.384       .  S
C2849      C2850   1.414       .  A
C2849      C2854   1.414       .  A
C2849      H2856   1.083   1_655  S
C2851      C2858   1.530       .  S
C2851      C2852   1.403       .  A
C2852      H2857   1.082       .  S
C2853      C2854   1.435       .  A
C2854      C2855   1.527       .  S
C2855      F2859   1.384       .  S
C2855      F2861   1.383       .  S
C2858      F2862   1.386       .  S
C2865      C2866   1.415   1_556  A
C2865      C2870   1.402       .  A
C2865      H2872   1.082       .  S
C2867      C2874   1.533       .  S
C2867      C2868   1.413       .  A
C2868      H2873   1.081       .  S
C2869      C2870   1.430   1_554  A
C2870      C2871   1.530       .  S
C2871      F2875   1.384   1_556  S
C2871      F2877   1.381       .  S
C2874      F2878   1.374   1_565  S
C2874      F2880   1.384       .  S
