geometry optimzed in LAMMPS
_audit_creation_date              2020-11-30 
_audit_creation_method            'lammps2cif' 
_symmetry_space_group_name_H-M    'P1' 
_symmetry_Int_Tables_number       1 
_symmetry_cell_setting            triclinic 
loop_ 
_symmetry_equiv_pos_as_xyz 
  x,y,z 
_cell_length_a                    39.46818366 
_cell_length_b                    42.00676968854654 
_cell_length_c                    42.25035265822714 
_cell_angle_alpha                 89.64814592276345 
_cell_angle_beta                  89.51696032120371 
_cell_angle_gamma                 90.57084210333676 
loop_ 
_atom_site_label 
_atom_site_type_symbol 
_atom_site_fract_x 
_atom_site_fract_y 
_atom_site_fract_z 
_atom_site_charge 
O1          O  0.06817586  0.20502185  0.04166236    -0.81300
O2          O  0.07912855  0.29018803  0.46371918    -0.81300
O3          O  0.12298860  0.26666791  0.07534870    -0.81400
O4          O  0.11377952  0.22196823  0.43393827    -0.81300
O5          O  0.08100030  0.28928540  0.04752004    -0.81400
O6          O  0.06942605  0.20735601  0.46404858    -0.81300
O7          O  0.11979326  0.26789294  0.43390053    -0.81300
O8          O  0.11207171  0.21942139  0.07213839    -0.81400
C9          C  0.08171012  0.20884975  0.06895733     1.08400
C10         C  0.09348000  0.28489920  0.43643518     1.08200
C11         C  0.09652634  0.28364858  0.07396522     1.08400
C12         C  0.08340524  0.21135926  0.43667710     1.08300
O13         O  0.12016637  0.17242455  0.47739206    -0.81300
O14         O  0.13640020  0.31301421  0.02703714    -0.81400
O15         O  0.17006357  0.20051459  0.04393805    -0.81300
O16         O  0.17377002  0.28388192  0.45879245    -0.81300
O17         O  0.13383847  0.31401980  0.48141394    -0.81400
O18         O  0.12474614  0.17328469  0.02608327    -0.81300
O19         O  0.16704353  0.19788178  0.45917421    -0.81300
O20         O  0.17617308  0.28039760  0.04570808    -0.81400
Co21       Co  0.09786152  0.20574048  0.00306909     1.51500
Co22       Co  0.10462765  0.28423189  0.50493583     1.51700
Co23       Co  0.14546090  0.24138882  0.04281029     1.51600
Co24       Co  0.14603026  0.24224126  0.46374583     1.51500
O25         O  0.12385809  0.24359624  0.00347012    -1.43300
C26         C  0.14883079  0.17203737  0.46306413     1.08300
C27         C  0.16449610  0.30871094  0.04101807     1.08400
C28         C  0.15387881  0.17427871  0.03902461     1.08300
C29         C  0.16037697  0.31159186  0.46454449     1.08300
O30         O  0.38774953  0.22701675  0.06789068    -0.81300
O31         O  0.36922600  0.26996317  0.42268349    -0.81300
O32         O  0.42596261  0.21331163  0.46221853    -0.81400
O33         O  0.41455500  0.29340930  0.04537083    -0.81300
O34         O  0.38154883  0.22356685  0.43155749    -0.81400
O35         O  0.37256455  0.27316134  0.07439218    -0.81300
O36         O  0.41231448  0.28951211  0.44975786    -0.81300
O37         O  0.42986536  0.21509311  0.03492658    -0.81400
C38         C  0.41818762  0.21817000  0.06347399     1.08400
C39         C  0.39737317  0.28451004  0.42336924     1.08200
C40         C  0.41190980  0.21388027  0.43479987     1.08400
C41         C  0.39961501  0.28939446  0.07217465     1.08300
O42         O  0.32687727  0.28621225  0.03879239    -0.81300
O43         O  0.31813569  0.21328613  0.46083539    -0.81400
O44         O  0.36692543  0.18329294  0.03428941    -0.81300
O45         O  0.37246161  0.32053226  0.48219738    -0.81300
O46         O  0.33023923  0.29331204  0.45795052    -0.81400
O47         O  0.32235506  0.21284154  0.04510872    -0.81300
O48         O  0.36924427  0.31648503  0.01768126    -0.81300
O49         O  0.36215021  0.18220620  0.47113756    -0.81400
Co50       Co  0.35452677  0.24805831  0.03944310     1.51500
Co51       Co  0.35148475  0.24914336  0.46060730     1.51700
Co52       Co  0.39641060  0.20256063  0.00026606     1.51600
Co53       Co  0.40716660  0.28746296  0.49807191     1.51500
O54         O  0.37763838  0.24765273  0.99936067    -1.43300
C55         C  0.34069807  0.31322450  0.03357350     1.08300
C56         C  0.33127583  0.18551337  0.46294849     1.08400
C57         C  0.33730656  0.18630573  0.04608189     1.08300
C58         C  0.34561942  0.31987666  0.46429875     1.08300
O59         O  0.22052267  0.04443649  0.17367780    -0.81300
O60         O  0.29838314  0.46185897  0.16421204    -0.81300
O61         O  0.19543145  0.46149448  0.14794784    -0.81400
O62         O  0.32534285  0.02247016  0.11646549    -0.81300
O63         O  0.22999568  0.43162931  0.17683916    -0.81400
O64         O  0.29723441  0.04144628  0.15831424    -0.81300
O65         O  0.32629829  0.47559595  0.11992712    -0.81300
O66         O  0.18064074  0.02370600  0.14341405    -0.81400
C67         C  0.18939755  0.04010123  0.16725368     1.08400
C68         C  0.32612085  0.46540446  0.14836255     1.08200
C69         C  0.19993597  0.44147800  0.17051186     1.08400
C70         C  0.32453605  0.03797995  0.14230376     1.08300
O71         O  0.27332719  0.06725589  0.10921681    -0.81300
O72         O  0.23205155  0.42749976  0.11544661    -0.81400
O73         O  0.19899326  0.02713775  0.07882237    -0.81300
O74         O  0.29307701  0.45491355  0.07260490    -0.81300
O75         O  0.27423002  0.42792846  0.11605555    -0.81400
O76         O  0.22175158  0.06173628  0.11247692    -0.81300
O77         O  0.29031923  0.03666031  0.06851720    -0.81300
O78         O  0.20515618  0.45725322  0.08078186    -0.81400
Co79       Co  0.25239134  0.03626395  0.13834373     1.51500
Co80       Co  0.25096073  0.45986022  0.14630810     1.51700
Co81       Co  0.19841331  0.99242754  0.11169425     1.51600
Co82       Co  0.29000225  0.99639672  0.09516657     1.51500
O83         O  0.24877795  0.99577091  0.11927598    -1.43300
C84         C  0.28593108  0.06415082  0.08159617     1.08300
C85         C  0.21345463  0.42981630  0.09098869     1.08400
C86         C  0.20381197  0.05578380  0.08830116     1.08300
C87         C  0.28919849  0.42877108  0.08848432     1.08300
O88         O  0.18806344  0.02663503  0.35500537    -0.81300
O89         O  0.32448782  0.47449246  0.37426396    -0.81300
O90         O  0.28128181  0.03320827  0.33022934    -0.81400
O91         O  0.21846955  0.46550568  0.32747432    -0.81300
O92         O  0.31489620  0.03651458  0.37140929    -0.81400
O93         O  0.17834323  0.47143190  0.36429968    -0.81300
O94         O  0.29104146  0.46884843  0.33303407    -0.81300
O95         O  0.21852641  0.06775769  0.33696861    -0.81400
C96         C  0.19083252  0.05174690  0.33741681     1.08400
C97         C  0.32029402  0.46838476  0.34502800     1.08200
C98         C  0.31114801  0.03767600  0.34180260     1.08400
C99         C  0.18729520  0.46415414  0.33618722     1.08300
O100        O  0.20853098  0.46122389  0.42439298    -0.81300
O101        O  0.27723858  0.03961383  0.42769815    -0.81400
O102        O  0.21032606  0.05067207  0.39992225    -0.81300
O103        O  0.28507977  0.43352185  0.39137349    -0.81300
O104        O  0.28677927  0.46786463  0.43156838    -0.81400
O105        O  0.16763552  0.01902603  0.41580059    -0.81300
O106        O  0.21816567  0.43011984  0.38351476    -0.81300
O107        O  0.26739837  0.06898412  0.38512540    -0.81400
Co108      Co  0.20481367  0.99879869  0.39361862     1.51500
Co109      Co  0.29738879  0.00388694  0.40153472     1.51700
Co110      Co  0.24183465  0.03644582  0.36153673     1.51600
Co111      Co  0.25354997  0.45241600  0.35894611     1.51500
O112        O  0.25261353  0.99503496  0.37992829    -1.43300
C113        C  0.20950721  0.43319021  0.41197663     1.08300
C114        C  0.27493086  0.06722257  0.41415759     1.08400
C115        C  0.18320892  0.04607085  0.41675226     1.08300
C116        C  0.29124055  0.43983540  0.42040332     1.08300
O117        O  0.03484931  0.18576956  0.21958605    -0.81300
O118        O  0.45114946  0.17706383  0.28437877    -0.81300
O119        O  0.48230563  0.14483566  0.18372491    -0.81400
O120        O  0.02196185  0.14109861  0.32153534    -0.81300
O121        O  0.45876119  0.18124328  0.21345900    -0.81400
O122        O  0.02820478  0.18385843  0.29028283    -0.81300
O123        O  0.45689739  0.13444976  0.31496226    -0.81300
O124        O  0.02195958  0.14327990  0.18995245    -0.81400
C125        C  0.03592192  0.17140724  0.19299240     1.08400
C126        C  0.44956970  0.16365458  0.31185741     1.08200
C127        C  0.46586498  0.17095321  0.18577003     1.08400
C128        C  0.02777391  0.17077565  0.31783568     1.08300
O129        O  0.06781964  0.12863122  0.28657515    -0.81300
O130        O  0.43700540  0.11512281  0.21052930    -0.81400
O131        O  0.03923340  0.08913873  0.21358717    -0.81300
O132        O  0.46218077  0.07797248  0.27792819    -0.81300
O133        O  0.42374143  0.11501425  0.27228464    -0.81400
O134        O  0.07236748  0.13017182  0.22478946    -0.81300
O135        O  0.03616039  0.08517687  0.28428913    -0.81300
O136        O  0.47594041  0.08610926  0.18473712    -0.81400
Co137      Co  0.04623834  0.15702868  0.25527504     1.51500
Co138      Co  0.44783189  0.14779929  0.24629735     1.51700
Co139      Co  0.99437793  0.11097916  0.21747543     1.51600
Co140      Co  0.49489686  0.11012157  0.29635551     1.51500
O141        O  0.49867727  0.13500678  0.25489206    -1.43300
C142        C  0.06502030  0.09865770  0.28798639     1.08300
C143        C  0.44509084  0.09396865  0.18943113     1.08400
C144        C  0.06855820  0.10205240  0.21459304     1.08300
C145        C  0.43101331  0.08622576  0.27737481     1.08300
O146        O  0.03635594  0.36195458  0.18826955    -0.81300
O147        O  0.46124736  0.36332793  0.31455898    -0.81300
O148        O  0.04063925  0.32070807  0.29287968    -0.81400
O149        O  0.46088649  0.32968762  0.21087844    -0.81300
O150        O  0.02628332  0.36268610  0.32036584    -0.81400
O151        O  0.47205949  0.37132835  0.18089252    -0.81300
O152        O  0.45482457  0.32521736  0.27886636    -0.81300
O153        O  0.04629032  0.32053549  0.21899223    -0.81400
C154        C  0.04866725  0.33443948  0.19213763     1.08400
C155        C  0.45369172  0.33471371  0.30747269     1.08200
C156        C  0.03883386  0.33520336  0.31923808     1.08400
C157        C  0.46223329  0.34270654  0.18365888     1.08300
O158        O  0.47341928  0.42875316  0.21702997    -0.81300
O159        O  0.03751941  0.41977512  0.28693242    -0.81400
O160        O  0.07494104  0.37352640  0.23377786    -0.81300
O161        O  0.42525529  0.38685473  0.27676089    -0.81300
O162        O  0.46448120  0.42422796  0.28168013    -0.81400
O163        O  0.04587845  0.41743370  0.22357718    -0.81300
O164        O  0.43144507  0.39324566  0.21605442    -0.81300
O165        O  0.06966757  0.37714313  0.28090183    -0.81400
Co166      Co  0.00604811  0.39454093  0.20692314     1.51500
Co167      Co  0.99702552  0.39241719  0.29634038     1.51700
Co168      Co  0.03807387  0.34946741  0.25542964     1.51600
Co169      Co  0.44670251  0.35820648  0.24583536     1.51500
O170        O  0.99571887  0.37349009  0.25090721    -1.43300
C171        C  0.44270507  0.42154836  0.21115613     1.08300
C172        C  0.06645589  0.40634606  0.28888324     1.08400
C173        C  0.07374363  0.40212929  0.22374315     1.08300
C174        C  0.43381091  0.41514498  0.28332167     1.08300
C175        C  0.38207946  0.46215652  0.33975377    -0.10300
C176        C  0.34987352  0.45946479  0.32589283     0.05900
C177        C  0.34695605  0.44591187  0.29551172    -0.04100
C178        C  0.37548588  0.43309963  0.28130191    -0.08600
C179        C  0.40730039  0.43529496  0.29565224     0.05000
C180        C  0.41086047  0.45104376  0.32454153    -0.03600
Br181      Br  0.45325265  0.45435595  0.34634463    -0.06900
H182        H  0.38492842  0.47150218  0.36333022     0.08900
H183        H  0.37277594  0.42066384  0.25903749     0.06900
Br184      Br  0.30532843  0.44144800  0.27249124    -0.03700
C185        C  0.12559588  0.40414971  0.30719402    -0.10300
C186        C  0.09810666  0.42320970  0.29809581     0.05900
C187        C  0.10299438  0.45648100  0.29643984    -0.04100
C188        C  0.13411259  0.46982282  0.30578421    -0.08600
C189        C  0.16084782  0.45054267  0.31595009     0.05000
C190        C  0.15673397  0.41738483  0.31523767    -0.03600
Br191      Br  0.19205873  0.38880164  0.32706505    -0.03300
H192        H  0.12301057  0.37846167  0.30825814     0.08900
H193        H  0.13719618  0.49534475  0.30591380     0.06900
Br194      Br  0.06868340  0.48470820  0.28166868    -0.03700
C195        C  0.34070202  0.05527172  0.29156642    -0.10300
C196        C  0.34286078  0.04464740  0.32283435     0.05900
C197        C  0.37597478  0.04348421  0.33663387    -0.04100
C198        C  0.40498033  0.05194394  0.31891778    -0.08600
C199        C  0.40238033  0.06539842  0.28879530     0.05000
C200        C  0.36949422  0.06717437  0.27544995    -0.03600
Br201      Br  0.36073756  0.09002624  0.23757534    -0.03300
H202        H  0.31605974  0.05732211  0.28067262     0.08900
H203        H  0.42941983  0.05191990  0.33043519     0.06900
Br204      Br  0.38505402  0.03543201  0.38077063    -0.03700
C205        C  0.12802045  0.05040732  0.33375657    -0.10300
C206        C  0.15926025  0.06177733  0.32113721     0.05900
C207        C  0.15851981  0.08245643  0.29486839    -0.04100
C208        C  0.12722383  0.09225534  0.28292097    -0.08600
C209        C  0.09619670  0.08133723  0.29610277     0.05000
C210        C  0.09688337  0.05976973  0.32147280    -0.03600
Br211      Br  0.05626115  0.04559181  0.34285267    -0.03300
H212        H  0.12755388  0.03458716  0.35408135     0.08900
H213        H  0.12714391  0.10979514  0.26408605     0.06900
Br214      Br  0.19893886  0.09838316  0.27458672    -0.03700
C215        C  0.36605646  0.46910664  0.19387860    -0.10300
C216        C  0.35952789  0.45882446  0.16290618     0.05900
C217        C  0.38693197  0.44592687  0.14522946    -0.04100
C218        C  0.41590964  0.43588540  0.16103446    -0.08600
C219        C  0.42071182  0.44305386  0.19297268     0.05000
C220        C  0.39761696  0.46344553  0.20783808    -0.03600
Br221      Br  0.41181333  0.49009345  0.24186263    -0.03300
H222        H  0.34762336  0.48349599  0.20623521     0.08900
H223        H  0.43452926  0.42184603  0.14847832     0.06900
Br224      Br  0.38751771  0.44155557  0.09984706    -0.03700
C225        C  0.13809942  0.44367414  0.17413581    -0.10300
C226        C  0.16862834  0.43169637  0.18682198     0.05900
C227        C  0.16727087  0.41183726  0.21352273    -0.04100
C228        C  0.13576525  0.40433156  0.22667181    -0.08600
C229        C  0.10560621  0.41623537  0.21357792     0.05000
C230        C  0.10692755  0.43587444  0.18691684    -0.03600
Br231      Br  0.06757718  0.44846846  0.16345851    -0.03300
H232        H  0.13782222  0.45848752  0.15307790     0.08900
H233        H  0.13478382  0.38764145  0.24624495     0.06900
Br234      Br  0.20648027  0.39289003  0.23208374    -0.03700
C235        C  0.38829725  0.09952956  0.16715921    -0.10300
C236        C  0.41739077  0.08079305  0.17062243     0.05900
C237        C  0.41681298  0.04906889  0.16031766    -0.04100
C238        C  0.38629481  0.03588287  0.15024645    -0.08600
C239        C  0.35608048  0.05313301  0.15213850     0.05000
C240        C  0.35743328  0.08573664  0.15903640    -0.03600
Br241      Br  0.31822316  0.11250587  0.15820086    -0.03300
H242        H  0.38883272  0.12450962  0.17345638     0.08900
H243        H  0.38614649  0.01187957  0.14146693     0.06900
Br244      Br  0.45570930  0.02200287  0.16110764    -0.03700
C245        C  0.13132536  0.03765205  0.18972769    -0.10300
C246        C  0.16133097  0.05547858  0.18490939     0.05900
C247        C  0.16056137  0.08851205  0.19031365    -0.04100
C248        C  0.13005553  0.10295650  0.19923489    -0.08600
C249        C  0.09973948  0.08515839  0.20366909     0.05000
C250        C  0.10092776  0.05194171  0.19905365    -0.03600
Br251      Br  0.06227094  0.02440041  0.20457422    -0.03300
H252        H  0.13127292  0.01230924  0.18519735     0.08900
H253        H  0.13016905  0.12850381  0.20257309     0.06900
Br254      Br  0.19962480  0.11549716  0.18418478    -0.03700
C255        C  0.34273734  0.35630151  0.07296102    -0.10300
C256        C  0.32546308  0.34163067  0.04805943     0.05900
C257        C  0.29222436  0.35144404  0.04202123    -0.04100
C258        C  0.28190870  0.38155605  0.05263444    -0.08600
C259        C  0.30091331  0.39798802  0.07540241     0.05000
C260        C  0.32802025  0.38155950  0.08921980    -0.03600
Br261      Br  0.33739191  0.38432631  0.13356401    -0.03300
H262        H  0.36545233  0.34573926  0.08224720     0.08900
H263        H  0.25780367  0.39062663  0.04545671     0.06900
Br264      Br  0.25880326  0.32158968  0.02722450    -0.03700
C265        C  0.34488809  0.13212603  0.06686159    -0.10300
C266        C  0.32256093  0.15735983  0.06093389     0.05900
C267        C  0.28760926  0.15164148  0.06378685    -0.04100
C268        C  0.27586575  0.12019136  0.06709650    -0.08600
C269        C  0.29837862  0.09429842  0.06806303     0.05000
C270        C  0.33327547  0.10083429  0.06882870    -0.03600
Br271      Br  0.36673090  0.06817190  0.07139939    -0.03300
H272        H  0.37204803  0.13623098  0.06690460     0.08900
H273        H  0.24909798  0.11597236  0.06992942     0.06900
Br274      Br  0.25554010  0.18560181  0.06587904    -0.03700
C275        C  0.33970335  0.40364078  0.42767273    -0.10300
C276        C  0.30804612  0.41402269  0.43858177     0.05900
C277        C  0.28981890  0.39393511  0.45932892    -0.04100
C278        C  0.30052117  0.36239403  0.46430559    -0.08600
C279        C  0.33219005  0.35172425  0.45382620     0.05000
C280        C  0.35260455  0.37385853  0.43655450    -0.03600
Br281      Br  0.39784218  0.36508341  0.42306679    -0.03300
H282        H  0.35436258  0.41871376  0.41161134     0.08900
H283        H  0.28399427  0.34607227  0.47671225     0.06900
Br284      Br  0.25176104  0.40969990  0.48236816    -0.03700
C285        C  0.28837205  0.15643902  0.42963077    -0.10300
C286        C  0.31280964  0.15564144  0.45351675     0.05900
C287        C  0.32190867  0.12522339  0.46576591    -0.04100
C288        C  0.30670120  0.09727856  0.45476836    -0.08600
C289        C  0.28379041  0.09787534  0.42996823     0.05000
C290        C  0.27414344  0.12814525  0.41757054    -0.03600
Br291      Br  0.24135730  0.13325797  0.38445267    -0.03300
H292        H  0.28110625  0.17908063  0.41946960     0.08900
H293        H  0.31501331  0.07458684  0.46406567     0.06900
Br294      Br  0.35778296  0.11807179  0.49488241    -0.03700
C295        C  0.39361745  0.29388050  0.36483075    -0.10300
C296        C  0.41321172  0.29442602  0.39269269     0.05900
C297        C  0.44767906  0.30338470  0.39013729    -0.04100
C298        C  0.46090690  0.31293305  0.36088213    -0.08600
C299        C  0.44100198  0.31455334  0.33376082     0.05000
C300        C  0.40721568  0.30395357  0.33559666    -0.03600
Br301      Br  0.37816331  0.30513556  0.29951194    -0.03300
H302        H  0.36726392  0.28652003  0.36584715     0.08900
H303        H  0.48690143  0.31994157  0.35928745     0.06900
Br304      Br  0.47897805  0.30037067  0.42462143    -0.03700
C305        C  0.41739106  0.31015945  0.15852273    -0.10300
C306        C  0.44801379  0.32704049  0.15543189     0.05900
C307        C  0.46079459  0.33340001  0.12463782    -0.04100
C308        C  0.44549824  0.31972922  0.09839739    -0.08600
C309        C  0.41489360  0.30281692  0.10129072     0.05000
C310        C  0.39974354  0.29983411  0.13180905    -0.03600
Br311      Br  0.35403351  0.28497144  0.13919416    -0.03300
H312        H  0.40568886  0.30731939  0.18167363     0.08900
H313        H  0.45679473  0.32400187  0.07528297     0.06900
Br314      Br  0.49597630  0.36367984  0.11539770    -0.03700
C315        C  0.44248827  0.22051316  0.38236991    -0.10300
C316        C  0.42786246  0.20042317  0.40563662     0.05900
C317        C  0.41994952  0.16904726  0.39684440    -0.04100
C318        C  0.42444899  0.15909726  0.36561871    -0.08600
C319        C  0.43842628  0.17929914  0.34194475     0.05000
C320        C  0.44767249  0.21046546  0.35080067    -0.03600
Br321      Br  0.47046598  0.23877160  0.32181140    -0.03300
H322        H  0.45081961  0.24375285  0.38903861     0.08900
H323        H  0.41798778  0.13461499  0.36013196     0.06900
Br324      Br  0.40467500  0.13780861  0.42684588    -0.03700
C325        C  0.42266301  0.22163919  0.12248844    -0.10300
C326        C  0.43691475  0.21045350  0.09374201     0.05900
C327        C  0.46344641  0.18842917  0.09630277    -0.04100
C328        C  0.47324761  0.17711883  0.12644019    -0.08600
C329        C  0.45796434  0.18778737  0.15504367     0.05000
C330        C  0.43277878  0.21099167  0.15246276    -0.03600
Br331      Br  0.40837701  0.22679028  0.18850689    -0.03300
H332        H  0.40148743  0.23747371  0.12183938     0.08900
H333        H  0.49249380  0.15897393  0.12728145     0.06900
Br334      Br  0.48520248  0.17072614  0.05981525    -0.03700
C335        C  0.16795693  0.40118070  0.44421577    -0.10300
C336        C  0.19861712  0.40265949  0.42769551     0.05900
C337        C  0.21517802  0.37317451  0.42116202    -0.04100
C338        C  0.20358145  0.34445468  0.43464763    -0.08600
C339        C  0.17314583  0.34290869  0.45142789     0.05000
C340        C  0.15404763  0.37183388  0.45412891    -0.03600
Br341      Br  0.10731505  0.37428179  0.46791967    -0.03300
H342        H  0.15331132  0.42268221  0.44705714     0.08900
H343        H  0.21765247  0.32284466  0.43052292     0.06900
Br344      Br  0.25251516  0.36848185  0.39227411    -0.03700
C345        C  0.19662926  0.09438634  0.44867168    -0.10300
C346        C  0.17161460  0.07475320  0.43476008     0.05900
C347        C  0.13884582  0.08724877  0.43189805    -0.04100
C348        C  0.13278214  0.11933675  0.43960779    -0.08600
C349        C  0.15865810  0.13974479  0.45118987     0.05000
C350        C  0.19039716  0.12623382  0.45710554    -0.03600
Br351      Br  0.22415228  0.14898780  0.48046783    -0.03300
H352        H  0.22137933  0.08471767  0.45307905     0.08900
H353        H  0.10733962  0.12835722  0.43684816     0.06900
Br354      Br  0.10157260  0.06161599  0.41787483    -0.03700
C355        C  0.17380703  0.36739790  0.03650757    -0.10300
C356        C  0.18108528  0.33861575  0.05246630     0.05900
C357        C  0.19843034  0.34057606  0.08126365    -0.04100
C358        C  0.20917903  0.37033903  0.09251051    -0.08600
C359        C  0.20212968  0.39918344  0.07627704     0.05000
C360        C  0.18347304  0.39728108  0.04810827    -0.03600
Br361      Br  0.16845675  0.43405823  0.02507196    -0.03300
H362        H  0.15890642  0.36683796  0.01538886     0.08900
H363        H  0.22245109  0.37075967  0.11482355     0.06900
Br364      Br  0.20536695  0.30404282  0.10777145    -0.03700
C365        C  0.16285369  0.11583655  0.03248820    -0.10300
C366        C  0.16698806  0.14381591  0.05052617     0.05900
C367        C  0.17771852  0.14114369  0.08180769    -0.04100
C368        C  0.18748151  0.11179525  0.09326609    -0.08600
C369        C  0.18782950  0.08428390  0.07416386     0.05000
C370        C  0.17376540  0.08615854  0.04376379    -0.03600
Br371      Br  0.16791724  0.04960859  0.01729529    -0.03300
H372        H  0.15064738  0.11693591  0.00979416     0.08900
H373        H  0.19552736  0.11089443  0.11756973     0.06900
Br374      Br  0.17523485  0.17559690  0.11152534    -0.03700
C375        C  0.05757528  0.32289316  0.40703796    -0.10300
C376        C  0.08127570  0.29868592  0.40610909     0.05900
C377        C  0.09528017  0.29046641  0.37590274    -0.04100
C378        C  0.07941187  0.30048195  0.34810803    -0.08600
C379        C  0.05364501  0.32299952  0.34921591     0.05000
C380        C  0.04551193  0.33659353  0.37924701    -0.03600
Br381      Br  0.01889924  0.37433976  0.38563256    -0.03300
H382        H  0.04936975  0.33227760  0.42962644     0.08900
H383        H  0.08923504  0.29275477  0.32541656     0.06900
Br384      Br  0.13943479  0.27211070  0.36946134    -0.03700
C385        C  0.06927411  0.34140602  0.13686163    -0.10300
C386        C  0.06700856  0.32165978  0.16406355     0.05900
C387        C  0.08252397  0.29178385  0.16259678    -0.04100
C388        C  0.09199932  0.27984577  0.13289268    -0.08600
C389        C  0.08620307  0.29728559  0.10462988     0.05000
C390        C  0.07797369  0.32940559  0.10729585    -0.03600
Br391      Br  0.08176428  0.35865925  0.07227743    -0.03300
H392        H  0.06338721  0.36647132  0.13819306     0.08900
H393        H  0.10373155  0.25667237  0.13191236     0.06900
Br394      Br  0.09439643  0.26804448  0.19984813    -0.03700
C395        C  0.01995231  0.18327431  0.37468472    -0.10300
C396        C  0.03880649  0.18762552  0.34648516     0.05900
C397        C  0.07201851  0.19940079  0.34847423    -0.04100
C398        C  0.08551476  0.20636347  0.37803998    -0.08600
C399        C  0.06620713  0.20366493  0.40631786     0.05000
C400        C  0.03269387  0.19225331  0.40420907    -0.03600
Br401      Br  0.00394860  0.18583362  0.44054526    -0.03300
H402        H  0.99580702  0.17109813  0.37406589     0.08900
H403        H  0.11211136  0.21237659  0.37879847     0.06900
Br404      Br  0.10198982  0.20134741  0.31238082    -0.03700
C405        C  0.06647784  0.16307351  0.14364484    -0.10300
C406        C  0.04975018  0.18502077  0.16311148     0.05900
C407        C  0.03978798  0.21434171  0.14981987    -0.04100
C408        C  0.04737351  0.22105172  0.11768481    -0.08600
C409        C  0.06439739  0.19881543  0.09858634     0.05000
C410        C  0.07262295  0.16923478  0.11176931    -0.03600
Br411      Br  0.08973980  0.13512737  0.08668460    -0.03300
H412        H  0.07302982  0.13981548  0.15288227     0.08900
H413        H  0.04023638  0.24375321  0.10766156     0.06900
Br414      Br  0.01358547  0.24444319  0.17346285    -0.03700
O415        O  0.06817602  0.20502183  0.54166226    -0.81300
O416        O  0.07912788  0.29018807  0.96371949    -0.81300
O417        O  0.12298852  0.26666757  0.57534862    -0.81400
O418        O  0.11377973  0.22196835  0.93393811    -0.81300
O419        O  0.08100050  0.28928543  0.54751989    -0.81400
O420        O  0.06942623  0.20735609  0.96404838    -0.81300
O421        O  0.11979268  0.26789304  0.93390093    -0.81300
O422        O  0.11207188  0.21942102  0.57213841    -0.81400
C423        C  0.08171024  0.20884955  0.56895726     1.08400
C424        C  0.09347938  0.28489928  0.93643553     1.08200
C425        C  0.09652638  0.28364843  0.57396511     1.08400
C426        C  0.08340549  0.21135933  0.93667690     1.08300
O427        O  0.12016570  0.17242434  0.97739224    -0.81300
O428        O  0.13640098  0.31301370  0.52703726    -0.81400
O429        O  0.17006334  0.20051391  0.54393772    -0.81300
O430        O  0.17376994  0.28388175  0.95879246    -0.81300
O431        O  0.13383830  0.31401963  0.98141383    -0.81400
O432        O  0.12474574  0.17328419  0.52608307    -0.81300
O433        O  0.16704283  0.19788150  0.95917423    -0.81300
O434        O  0.17617354  0.28039692  0.54570847    -0.81400
Co435      Co  0.09786167  0.20574041  0.50306897     1.51500
Co436      Co  0.10462726  0.28423195  0.00493587     1.51700
Co437      Co  0.14546103  0.24138842  0.54281030     1.51600
Co438      Co  0.14603005  0.24224126  0.96374593     1.51500
O439        O  0.12385833  0.24359613  0.50347006    -1.43300
C440        C  0.14883000  0.17203712  0.96306412     1.08300
C441        C  0.16449676  0.30871031  0.54101837     1.08400
C442        C  0.15387848  0.17427807  0.53902427     1.08300
C443        C  0.16037684  0.31159168  0.96454443     1.08300
O444        O  0.38775071  0.22701689  0.56789053    -0.81300
O445        O  0.36922545  0.26996293  0.92268328    -0.81300
O446        O  0.42596219  0.21331144  0.96221878    -0.81400
O447        O  0.41455533  0.29340960  0.54537103    -0.81300
O448        O  0.38154861  0.22356673  0.93155751    -0.81400
O449        O  0.37256511  0.27316119  0.57439236    -0.81300
O450        O  0.41231380  0.28951198  0.94975774    -0.81300
O451        O  0.42986640  0.21509319  0.53492629    -0.81400
C452        C  0.41818878  0.21817011  0.56347374     1.08400
C453        C  0.39737257  0.28450989  0.92336909     1.08200
C454        C  0.41190958  0.21388019  0.93480002     1.08400
C455        C  0.39961539  0.28939457  0.57217486     1.08300
O456        O  0.32687791  0.28621214  0.53879261    -0.81300
O457        O  0.31813520  0.21328595  0.96083526    -0.81400
O458        O  0.36692666  0.18329286  0.53428957    -0.81300
O459        O  0.37246113  0.32053206  0.98219719    -0.81300
O460        O  0.33023873  0.29331186  0.95795032    -0.81400
O461        O  0.32235614  0.21284123  0.54510892    -0.81300
O462        O  0.36924473  0.31648513  0.51768146    -0.81300
O463        O  0.36214977  0.18220610  0.97113737    -0.81400
Co464      Co  0.35452753  0.24805823  0.53944320     1.51500
Co465      Co  0.35148426  0.24914317  0.96060714     1.51700
Co466      Co  0.39641137  0.20256073  0.50026598     1.51600
Co467      Co  0.40716606  0.28746275  0.99807177     1.51500
O468        O  0.37763904  0.24765282  0.49936075    -1.43300
C469        C  0.34069859  0.31322446  0.53357377     1.08300
C470        C  0.33127537  0.18551321  0.96294839     1.08400
C471        C  0.33730784  0.18630551  0.54608215     1.08300
C472        C  0.34561899  0.31987651  0.96429862     1.08300
O473        O  0.22052301  0.04443684  0.67367708    -0.81300
O474        O  0.29838294  0.46185966  0.66421275    -0.81300
O475        O  0.19543142  0.46149456  0.64794794    -0.81400
O476        O  0.32534337  0.02246963  0.61646588    -0.81300
O477        O  0.22999568  0.43162966  0.67683952    -0.81400
O478        O  0.29723460  0.04144577  0.65831440    -0.81300
O479        O  0.32629819  0.47559595  0.61992771    -0.81300
O480        O  0.18064119  0.02370617  0.64341335    -0.81400
C481        C  0.18939793  0.04010157  0.66725289     1.08400
C482        C  0.32612068  0.46540484  0.64836328     1.08200
C483        C  0.19993596  0.44147826  0.67051212     1.08400
C484        C  0.32453638  0.03797931  0.64230419     1.08300
O485        O  0.27332835  0.06725564  0.60921666    -0.81300
O486        O  0.23205161  0.42749954  0.61544708    -0.81400
O487        O  0.19899395  0.02713705  0.57882171    -0.81300
O488        O  0.29307726  0.45491335  0.57260528    -0.81300
O489        O  0.27423043  0.42792838  0.61605606    -0.81400
O490        O  0.22175250  0.06173585  0.61247585    -0.81300
O491        O  0.29032049  0.03666007  0.56851706    -0.81300
O492        O  0.20515644  0.45725276  0.58078202    -0.81400
Co493      Co  0.25239187  0.03626387  0.63834330     1.51500
Co494      Co  0.25096085  0.45986023  0.64630827     1.51700
Co495      Co  0.19841390  0.99242723  0.61169408     1.51600
Co496      Co  0.29000299  0.99639649  0.59516642     1.51500
O497        O  0.24877860  0.99577081  0.61927579    -1.43300
C498        C  0.28593247  0.06415056  0.58159610     1.08300
C499        C  0.21345488  0.42981590  0.59098905     1.08400
C500        C  0.20381281  0.05578320  0.58830020     1.08300
C501        C  0.28919881  0.42877093  0.58848480     1.08300
O502        O  0.18806334  0.02663458  0.85500532    -0.81300
O503        O  0.32448763  0.47449244  0.87426418    -0.81300
O504        O  0.28128159  0.03320788  0.83022968    -0.81400
O505        O  0.21846945  0.46550566  0.82747453    -0.81300
O506        O  0.31489599  0.03651426  0.87140961    -0.81400
O507        O  0.17834311  0.47143185  0.86429992    -0.81300
O508        O  0.29104134  0.46884840  0.83303428    -0.81300
O509        O  0.21852634  0.06775736  0.83696886    -0.81400
C510        C  0.19083250  0.05174651  0.83741688     1.08400
C511        C  0.32029388  0.46838477  0.84502824     1.08200
C512        C  0.31114778  0.03767570  0.84180292     1.08400
C513        C  0.18729510  0.46415414  0.83618744     1.08300
O514        O  0.20853098  0.46122361  0.92439319    -0.81300
O515        O  0.27723820  0.03961357  0.92769848    -0.81400
O516        O  0.21032556  0.05067171  0.89992238    -0.81300
O517        O  0.28507963  0.43352181  0.89137379    -0.81300
O518        O  0.28677928  0.46786472  0.93156858    -0.81400
O519        O  0.16763483  0.01902571  0.91580032    -0.81300
O520        O  0.21816554  0.43011973  0.88351484    -0.81300
O521        O  0.26739806  0.06898375  0.88512566    -0.81400
Co522      Co  0.20481333  0.99879841  0.89361874     1.51500
Co523      Co  0.29738857  0.00388663  0.90153518     1.51700
Co524      Co  0.24183439  0.03644544  0.86153701     1.51600
Co525      Co  0.25354986  0.45241594  0.85894630     1.51500
O526        O  0.25261332  0.99503463  0.87992866    -1.43300
C527        C  0.20950712  0.43318999  0.91197671     1.08300
C528        C  0.27493046  0.06722228  0.91415787     1.08400
C529        C  0.18320819  0.04607054  0.91675209     1.08300
C530        C  0.29124039  0.43983543  0.92040361     1.08300
O531        O  0.03484928  0.18576928  0.71958579    -0.81300
O532        O  0.45114975  0.17706384  0.78437880    -0.81300
O533        O  0.48230570  0.14483501  0.68372491    -0.81400
O534        O  0.02196249  0.14109875  0.82153520    -0.81300
O535        O  0.45876149  0.18124286  0.71345886    -0.81400
O536        O  0.02820518  0.18385845  0.79028252    -0.81300
O537        O  0.45689774  0.13444987  0.81496244    -0.81300
O538        O  0.02195962  0.14327946  0.68995236    -0.81400
C539        C  0.03592183  0.17140688  0.69299219     1.08400
C540        C  0.44957000  0.16365468  0.81185751     1.08200
C541        C  0.46586522  0.17095266  0.68576992     1.08400
C542        C  0.02777446  0.17077578  0.81783541     1.08300
O543        O  0.06782010  0.12863119  0.78657488    -0.81300
O544        O  0.43700556  0.11512239  0.71052963    -0.81400
O545        O  0.03923379  0.08913845  0.71358717    -0.81300
O546        O  0.46218070  0.07797237  0.77792868    -0.81300
O547        O  0.42374153  0.11501430  0.77228497    -0.81400
O548        O  0.07236772  0.13017171  0.72478922    -0.81300
O549        O  0.03616079  0.08517685  0.78428915    -0.81300
O550        O  0.47594048  0.08610860  0.68473754    -0.81400
Co551      Co  0.04623860  0.15702855  0.75527480     1.51500
Co552      Co  0.44783210  0.14779909  0.74629746     1.51700
Co553      Co  0.99437821  0.11097868  0.71747552     1.51600
Co554      Co  0.49489707  0.11012148  0.79635569     1.51500
O555        O  0.49867743  0.13500645  0.75489214    -1.43300
C556        C  0.06502069  0.09865767  0.78798628     1.08300
C557        C  0.44509095  0.09396808  0.68943158     1.08400
C558        C  0.06855853  0.10205225  0.71459289     1.08300
C559        C  0.43101325  0.08622579  0.77737524     1.08300
O560        O  0.03635587  0.36195444  0.68826960    -0.81300
O561        O  0.46124721  0.36332810  0.81455930    -0.81300
O562        O  0.04063917  0.32070819  0.79287997    -0.81400
O563        O  0.46088610  0.32968828  0.71087867    -0.81300
O564        O  0.02628337  0.36268636  0.82036602    -0.81400
O565        O  0.47205902  0.37132914  0.68089290    -0.81300
O566        O  0.45482430  0.32521770  0.77886652    -0.81300
O567        O  0.04629034  0.32053541  0.71899234    -0.81400
C568        C  0.04866719  0.33443934  0.69213769     1.08400
C569        C  0.45369146  0.33471392  0.80747288     1.08200
C570        C  0.03883381  0.33520358  0.81923833     1.08400
C571        C  0.46223285  0.34270731  0.68365916     1.08300
O572        O  0.47341912  0.42875378  0.71703068    -0.81300
O573        O  0.03751939  0.41977523  0.78693245    -0.81400
O574        O  0.07494110  0.37352622  0.73377794    -0.81300
O575        O  0.42525517  0.38685510  0.77676140    -0.81300
O576        O  0.46448113  0.42422828  0.78168063    -0.81400
O577        O  0.04587857  0.41743353  0.72357726    -0.81300
O578        O  0.43144481  0.39324637  0.71605503    -0.81300
O579        O  0.06966753  0.37714320  0.78090190    -0.81400
Co580      Co  0.00604818  0.39454088  0.70692323     1.51500
Co581      Co  0.99702555  0.39241728  0.79634046     1.51700
Co582      Co  0.03807387  0.34946737  0.75542978     1.51600
Co583      Co  0.44670224  0.35820699  0.74583572     1.51500
O584        O  0.99571892  0.37349010  0.75090731    -1.43300
C585        C  0.44270486  0.42154909  0.71115690     1.08300
C586        C  0.06645586  0.40634616  0.78888325     1.08400
C587        C  0.07374371  0.40212909  0.72374319     1.08300
C588        C  0.43381084  0.41514532  0.78332217     1.08300
C589        C  0.38207928  0.46215651  0.83975426    -0.10300
C590        C  0.34987342  0.45946491  0.82589314     0.05900
C591        C  0.34695606  0.44591221  0.79551195    -0.04100
C592        C  0.37548594  0.43310005  0.78130219    -0.08600
C593        C  0.40730037  0.43529532  0.79565265     0.05000
C594        C  0.41086035  0.45104390  0.82454205    -0.03600
Br595      Br  0.45325244  0.45435590  0.84634535    -0.06900
H596        H  0.38492814  0.47150190  0.86333084     0.08900
H597        H  0.37277608  0.42066435  0.75903771     0.06900
Br598      Br  0.30532855  0.44144849  0.77249128    -0.03700
C599        C  0.12559583  0.40414977  0.80719406    -0.10300
C600        C  0.09810664  0.42320978  0.79809584     0.05900
C601        C  0.10299438  0.45648109  0.79643990    -0.04100
C602        C  0.13411257  0.46982288  0.80578435    -0.08600
C603        C  0.16084775  0.45054270  0.81595027     0.05000
C604        C  0.15673391  0.41738486  0.81523778    -0.03600
Br605      Br  0.19205864  0.38880164  0.82706516    -0.03300
H606        H  0.12301051  0.37846173  0.80825815     0.08900
H607        H  0.13719618  0.49534480  0.80591397     0.06900
Br608      Br  0.06868346  0.48470832  0.78166869    -0.03700
C609        C  0.34070169  0.05527204  0.79156683    -0.10300
C610        C  0.34286050  0.04464728  0.82283463     0.05900
C611        C  0.37597453  0.04348392  0.83663405    -0.04100
C612        C  0.40498007  0.05194374  0.81891798    -0.08600
C613        C  0.40238007  0.06539856  0.78879565     0.05000
C614        C  0.36949390  0.06717482  0.77545042    -0.03600
Br615      Br  0.36073720  0.09002724  0.73757610    -0.03300
H616        H  0.31605939  0.05732264  0.78067312     0.08900
H617        H  0.42941960  0.05191949  0.83043534     0.06900
Br618      Br  0.38505383  0.03543138  0.88077073    -0.03700
C619        C  0.12802047  0.05040704  0.83375652    -0.10300
C620        C  0.15926033  0.06177697  0.82113720     0.05900
C621        C  0.15852005  0.08245606  0.79486838    -0.04100
C622        C  0.12722415  0.09225512  0.78292093    -0.08600
C623        C  0.09619698  0.08133715  0.79610273     0.05000
C624        C  0.09688348  0.05976958  0.82147271    -0.03600
Br625      Br  0.05626114  0.04559170  0.84285244    -0.03300
H626        H  0.12755381  0.03458686  0.85408128     0.08900
H627        H  0.12714434  0.10979486  0.76408596     0.06900
Br628      Br  0.19893920  0.09838252  0.77458669    -0.03700
C629        C  0.36605615  0.46910715  0.69387945    -0.10300
C630        C  0.35952769  0.45882497  0.66290701     0.05900
C631        C  0.38693188  0.44592755  0.64523030    -0.04100
C632        C  0.41590960  0.43588626  0.66103530    -0.08600
C633        C  0.42071168  0.44305468  0.69297353     0.05000
C634        C  0.39761667  0.46344618  0.70783895    -0.03600
Br635      Br  0.41181291  0.49009426  0.74186343    -0.03300
H636        H  0.34762295  0.48349640  0.70623604     0.08900
H637        H  0.43452932  0.42184701  0.64847916     0.06900
Br638      Br  0.38751780  0.44155629  0.59984789    -0.03700
C639        C  0.13809942  0.44367434  0.67413611    -0.10300
C640        C  0.16862837  0.43169660  0.68682226     0.05900
C641        C  0.16727092  0.41183732  0.71352288    -0.04100
C642        C  0.13576532  0.40433144  0.72667187    -0.08600
C643        C  0.10560627  0.41623519  0.71357798     0.05000
C644        C  0.10692756  0.43587441  0.68691700    -0.03600
Br645      Br  0.06757718  0.44846834  0.66345864    -0.03300
H646        H  0.13782221  0.45848785  0.65307829     0.08900
H647        H  0.13478391  0.38764124  0.74624495     0.06900
Br648      Br  0.20648034  0.39289006  0.73208383    -0.03700
C649        C  0.38829735  0.09952888  0.66715981    -0.10300
C650        C  0.41739089  0.08079241  0.67062299     0.05900
C651        C  0.41681319  0.04906828  0.66031814    -0.04100
C652        C  0.38629506  0.03588221  0.65024698    -0.08600
C653        C  0.35608070  0.05313231  0.65213911     0.05000
C654        C  0.35743343  0.08573594  0.65903698    -0.03600
Br655      Br  0.31822333  0.11250520  0.65820117    -0.03300
H656        H  0.38883279  0.12450896  0.67345692     0.08900
H657        H  0.38614680  0.01187895  0.64146736     0.06900
Br658      Br  0.45570964  0.02200240  0.66110779    -0.03700
C659        C  0.13132583  0.03765222  0.68972706    -0.10300
C660        C  0.16133131  0.05547888  0.68490858     0.05900
C661        C  0.16056163  0.08851233  0.69031294    -0.04100
C662        C  0.13005579  0.10295663  0.69923447    -0.08600
C663        C  0.09973985  0.08515839  0.70366881     0.05000
C664        C  0.10092825  0.05194173  0.69905330    -0.03600
Br665      Br  0.06227164  0.02440024  0.70457421    -0.03300
H666        H  0.13127347  0.01230942  0.68519671     0.08900
H667        H  0.13016923  0.12850393  0.70257274     0.06900
Br668      Br  0.19962488  0.11549760  0.68418381    -0.03700
C669        C  0.34273777  0.35630139  0.57296147    -0.10300
C670        C  0.32546354  0.34163056  0.54805984     0.05900
C671        C  0.29222484  0.35144395  0.54202162    -0.04100
C672        C  0.28190914  0.38155593  0.55263487    -0.08600
C673        C  0.30091366  0.39798785  0.57540294     0.05000
C674        C  0.32802066  0.38155937  0.58922028    -0.03600
Br675      Br  0.33739264  0.38432642  0.63356442    -0.03300
H676        H  0.36545280  0.34573919  0.58224760     0.08900
H677        H  0.25780417  0.39062655  0.54545702     0.06900
Br678      Br  0.25880378  0.32158958  0.52722472    -0.03700
C679        C  0.34488965  0.13212579  0.56686185    -0.10300
C680        C  0.32256242  0.15735959  0.56093424     0.05900
C681        C  0.28761077  0.15164120  0.56378728    -0.04100
C682        C  0.27586729  0.12019107  0.56709670    -0.08600
C683        C  0.29838018  0.09429815  0.56806314     0.05000
C684        C  0.33327704  0.10083403  0.56882896    -0.03600
Br685      Br  0.36673243  0.06817161  0.57139991    -0.03300
H686        H  0.37204958  0.13623078  0.56690479     0.08900
H687        H  0.24909955  0.11597204  0.56992961     0.06900
Br688      Br  0.25554158  0.18560147  0.56587989    -0.03700
C689        C  0.33970303  0.40364068  0.92767348    -0.10300
C690        C  0.30804589  0.41402274  0.93858206     0.05900
C691        C  0.28981835  0.39393487  0.95932891    -0.04100
C692        C  0.30052178  0.36239491  0.96430425    -0.08600
C693        C  0.33218955  0.35172399  0.95382620     0.05000
C694        C  0.35260440  0.37385856  0.93655481    -0.03600
Br695      Br  0.39784199  0.36508347  0.92306732    -0.03300
H696        H  0.35436270  0.41871411  0.91161204     0.08900
H697        H  0.28399013  0.34606857  0.97671374     0.06900
Br698      Br  0.25176053  0.40969963  0.98236805    -0.03700
C699        C  0.28837163  0.15643875  0.92963079    -0.10300
C700        C  0.31280921  0.15564125  0.95351676     0.05900
C701        C  0.32190830  0.12522324  0.96576600    -0.04100
C702        C  0.30670078  0.09727837  0.95476857    -0.08600
C703        C  0.28378998  0.09787509  0.92996844     0.05000
C704        C  0.27414303  0.12814495  0.91757064    -0.03600
Br705      Br  0.24135696  0.13325760  0.88445270    -0.03300
H706        H  0.28110583  0.17908033  0.91946955     0.08900
H707        H  0.31501291  0.07458668  0.96406594     0.06900
Br708      Br  0.35778275  0.11807174  0.99488236    -0.03700
C709        C  0.39361708  0.29388032  0.86483059    -0.10300
C710        C  0.41321121  0.29442595  0.89269261     0.05900
C711        C  0.44767850  0.30338481  0.89013740    -0.04100
C712        C  0.46090646  0.31293325  0.86088230    -0.08600
C713        C  0.44100165  0.31455347  0.83376092     0.05000
C714        C  0.40721542  0.30395349  0.83559658    -0.03600
Br715      Br  0.37816323  0.30513535  0.79951172    -0.03300
H716        H  0.36726361  0.28651969  0.86584687     0.08900
H717        H  0.48690087  0.31994190  0.85928775     0.06900
Br718      Br  0.47897735  0.30037106  0.92462169    -0.03700
C719        C  0.41739091  0.31015990  0.65852294    -0.10300
C720        C  0.44801345  0.32704126  0.65543214     0.05900
C721        C  0.46079426  0.33340086  0.62463810    -0.04100
C722        C  0.44549818  0.31972982  0.59839766    -0.08600
C723        C  0.41489375  0.30281718  0.60129094     0.05000
C724        C  0.39974362  0.29983428  0.63180925    -0.03600
Br725      Br  0.35403379  0.28497098  0.63919428    -0.03300
H726        H  0.40568870  0.30731972  0.68167382     0.08900
H727        H  0.45679469  0.32400254  0.57528326     0.06900
Br728      Br  0.49597554  0.36368112  0.61539799    -0.03700
C729        C  0.44248821  0.22051316  0.88237009    -0.10300
C730        C  0.42786241  0.20042318  0.90563678     0.05900
C731        C  0.41994958  0.16904727  0.89684447    -0.04100
C732        C  0.42444915  0.15909735  0.86561877    -0.08600
C733        C  0.43842645  0.17929925  0.84194483     0.05000
C734        C  0.44767258  0.21046559  0.85080084    -0.03600
Br735      Br  0.47046622  0.23877175  0.82181171    -0.03300
H736        H  0.45081957  0.24375309  0.88903892     0.08900
H737        H  0.41798798  0.13461505  0.86013198     0.06900
Br738      Br  0.40467501  0.13780855  0.92684587    -0.03700
C739        C  0.42266430  0.22163935  0.62248817    -0.10300
C740        C  0.43691590  0.21045348  0.59374175     0.05900
C741        C  0.46344717  0.18842873  0.59630257    -0.04100
C742        C  0.47324808  0.17711818  0.62644002    -0.08600
C743        C  0.45796487  0.18778687  0.65504349     0.05000
C744        C  0.43277970  0.21099155  0.65246251    -0.03600
Br745      Br  0.40837792  0.22679034  0.68850654    -0.03300
H746        H  0.40148901  0.23747420  0.62183908     0.08900
H747        H  0.49249397  0.15897300  0.62728132     0.06900
Br748      Br  0.48520306  0.17072547  0.55981507    -0.03700
C749        C  0.16795665  0.40118043  0.94421554    -0.10300
C750        C  0.19861693  0.40265925  0.92769545     0.05900
C751        C  0.21517788  0.37317430  0.92116198    -0.04100
C752        C  0.20358134  0.34445447  0.93464760    -0.08600
C753        C  0.17314564  0.34290847  0.95142775     0.05000
C754        C  0.15404734  0.37183360  0.95412859    -0.03600
Br755      Br  0.10731459  0.37428139  0.96791890    -0.03300
H756        H  0.15331099  0.42268193  0.94705682     0.08900
H757        H  0.21765242  0.32284448  0.93052298     0.06900
Br758      Br  0.25251508  0.36848171  0.89227411    -0.03700
C759        C  0.19662841  0.09438618  0.94867126    -0.10300
C760        C  0.17161374  0.07475296  0.93475978     0.05900
C761        C  0.13884489  0.08724847  0.93189790    -0.04100
C762        C  0.13278117  0.11933645  0.93960777    -0.08600
C763        C  0.15865717  0.13974455  0.95118971     0.05000
C764        C  0.19039630  0.12623365  0.95710512    -0.03600
Br765      Br  0.22415153  0.14898769  0.98046718    -0.03300
H766        H  0.22137853  0.08471758  0.95307853     0.08900
H767        H  0.10733860  0.12835687  0.93684832     0.06900
Br768      Br  0.10157165  0.06161564  0.91787477    -0.03700
C769        C  0.17380789  0.36739722  0.53650786    -0.10300
C770        C  0.18108600  0.33861511  0.55246669     0.05900
C771        C  0.19843088  0.34057550  0.58126415    -0.04100
C772        C  0.20917945  0.37033853  0.59251103    -0.08600
C773        C  0.20213012  0.39918291  0.57627747     0.05000
C774        C  0.18347372  0.39728043  0.54810858    -0.03600
Br775      Br  0.16845746  0.43405748  0.52507211    -0.03300
H776        H  0.15890751  0.36683723  0.51538902     0.08900
H777        H  0.22245138  0.37075926  0.61482414     0.06900
Br778      Br  0.20536742  0.30404228  0.60777201    -0.03700
C779        C  0.16285314  0.11583577  0.53248772    -0.10300
C780        C  0.16698782  0.14381519  0.55052558     0.05900
C781        C  0.17771906  0.14114305  0.58180685    -0.04100
C782        C  0.18748259  0.11179472  0.59326503    -0.08600
C783        C  0.18783022  0.08428329  0.57416288     0.05000
C784        C  0.17376527  0.08615780  0.54376315    -0.03600
Br785      Br  0.16791642  0.04960770  0.51729497    -0.03300
H786        H  0.15064632  0.11693506  0.50979390     0.08900
H787        H  0.19552904  0.11089407  0.61756850     0.06900
Br788      Br  0.17523568  0.17559620  0.61152459    -0.03700
C789        C  0.05757487  0.32289339  0.90703828    -0.10300
C790        C  0.08127523  0.29868610  0.90610945     0.05900
C791        C  0.09527985  0.29046665  0.87590316    -0.04100
C792        C  0.07941170  0.30048222  0.84810841    -0.08600
C793        C  0.05364485  0.32299979  0.84921621     0.05000
C794        C  0.04551163  0.33659379  0.87924729    -0.03600
Br795      Br  0.01889872  0.37433991  0.88563277    -0.03300
H796        H  0.04936923  0.33227780  0.92962674     0.08900
H797        H  0.08923498  0.29275508  0.82541697     0.06900
Br798      Br  0.13943454  0.27211104  0.86946192    -0.03700
C799        C  0.06927397  0.34140583  0.63686161    -0.10300
C800        C  0.06700841  0.32165960  0.66406354     0.05900
C801        C  0.08252383  0.29178366  0.66259673    -0.04100
C802        C  0.09199923  0.27984559  0.63289262    -0.08600
C803        C  0.08620307  0.29728544  0.60462982     0.05000
C804        C  0.07797366  0.32940544  0.60729582    -0.03600
Br805      Br  0.08176444  0.35865917  0.57227748    -0.03300
H806        H  0.06338704  0.36647112  0.63819304     0.08900
H807        H  0.10373143  0.25667220  0.63191231     0.06900
Br808      Br  0.09439626  0.26804426  0.69984807    -0.03700
C809        C  0.01995269  0.18327485  0.87468428    -0.10300
C810        C  0.03880705  0.18762578  0.84648479     0.05900
C811        C  0.07201920  0.19940071  0.84847398    -0.04100
C812        C  0.08551538  0.20636332  0.87803978    -0.08600
C813        C  0.06620754  0.20366503  0.90631758     0.05000
C814        C  0.03269419  0.19225378  0.90420866    -0.03600
Br815      Br  0.00394869  0.18583452  0.94054474    -0.03300
H816        H  0.99580730  0.17109885  0.87406539     0.08900
H817        H  0.11211204  0.21237622  0.87879837     0.06900
Br818      Br  0.10199068  0.20134698  0.81238067    -0.03700
C819        C  0.06647764  0.16307316  0.64364458    -0.10300
C820        C  0.04974997  0.18502039  0.66311123     0.05900
C821        C  0.03978781  0.21434136  0.64981965    -0.04100
C822        C  0.04737344  0.22105145  0.61768463    -0.08600
C823        C  0.06439738  0.19881519  0.59858617     0.05000
C824        C  0.07262287  0.16923449  0.61176910    -0.03600
Br825      Br  0.08973985  0.13512714  0.58668440    -0.03300
H826        H  0.07302961  0.13981511  0.65288199     0.08900
H827        H  0.04023638  0.24375296  0.60766142     0.06900
Br828      Br  0.01358531  0.24444282  0.67346267    -0.03700
O829        O  0.06817603  0.70502167  0.04166229    -0.81300
O830        O  0.07912879  0.79018852  0.46371966    -0.81300
O831        O  0.12298916  0.76666732  0.07534903    -0.81400
O832        O  0.11377972  0.72196871  0.43393807    -0.81300
O833        O  0.08100068  0.78928484  0.04752061    -0.81400
O834        O  0.06942614  0.70735653  0.46404829    -0.81300
O835        O  0.11979337  0.76789336  0.43390093    -0.81300
O836        O  0.11207199  0.71942087  0.07213832    -0.81400
C837        C  0.08171034  0.70884939  0.06895725     1.08400
C838        C  0.09348018  0.78489971  0.43643564     1.08200
C839        C  0.09652683  0.78364792  0.07396571     1.08400
C840        C  0.08340541  0.71135978  0.43667682     1.08300
O841        O  0.12016569  0.67242455  0.47739180    -0.81300
O842        O  0.13640041  0.81301391  0.02703750    -0.81400
O843        O  0.17006386  0.70051428  0.04393760    -0.81300
O844        O  0.17377039  0.78388193  0.45879270    -0.81300
O845        O  0.13383903  0.81401988  0.48141442    -0.81400
O846        O  0.12474621  0.67328445  0.02608316    -0.81300
O847        O  0.16704302  0.69788160  0.45917405    -0.81300
O848        O  0.17617340  0.78039724  0.04570812    -0.81400
Co849      Co  0.09786169  0.70574035  0.00306908     1.51500
Co850      Co  0.10462797  0.78423201  0.50493620     1.51700
Co851      Co  0.14546119  0.74138847  0.04281030     1.51600
Co852      Co  0.14603037  0.74224137  0.46374592     1.51500
O853        O  0.12385823  0.74359611  0.00347022    -1.43300
C854        C  0.14883007  0.67203727  0.46306381     1.08300
C855        C  0.16449640  0.80871059  0.04101825     1.08400
C856        C  0.15387900  0.67427844  0.03902427     1.08300
C857        C  0.16037750  0.81159192  0.46454490     1.08300
O858        O  0.38775045  0.72701685  0.06789055    -0.81300
O859        O  0.36922560  0.76996293  0.42268328    -0.81300
O860        O  0.42596270  0.71331169  0.46221857    -0.81400
O861        O  0.41455520  0.79340948  0.04537100    -0.81300
O862        O  0.38154882  0.72356681  0.43155761    -0.81400
O863        O  0.37256493  0.77316116  0.07439231    -0.81300
O864        O  0.41231401  0.78951212  0.44975759    -0.81300
O865        O  0.42986624  0.71509318  0.03492642    -0.81400
C866        C  0.41818854  0.71817013  0.06347384     1.08400
C867        C  0.39737271  0.78450991  0.42336898     1.08200
C868        C  0.41190983  0.71388028  0.43479994     1.08400
C869        C  0.39961524  0.78939449  0.07217481     1.08300
O870        O  0.32687776  0.78621206  0.03879250    -0.81300
O871        O  0.31813569  0.71328604  0.46083562    -0.81400
O872        O  0.36692649  0.68329285  0.03428959    -0.81300
O873        O  0.37246197  0.82053257  0.48219753    -0.81300
O874        O  0.33023965  0.79331256  0.45795050    -0.81400
O875        O  0.32235597  0.71284127  0.04510880    -0.81300
O876        O  0.36924463  0.81648504  0.01768144    -0.81300
O877        O  0.36215032  0.68220613  0.47113763    -0.81400
Co878      Co  0.35452739  0.74805820  0.03944314     1.51500
Co879      Co  0.35148462  0.74914346  0.46060733     1.51700
Co880      Co  0.39641129  0.70256066  0.00026606     1.51600
Co881      Co  0.40716666  0.78746292  0.49807171     1.51500
O882        O  0.37763896  0.74765275  0.99936074    -1.43300
C883        C  0.34069844  0.81322437  0.03357369     1.08300
C884        C  0.33127589  0.68551327  0.46294868     1.08400
C885        C  0.33730766  0.68630556  0.04608213     1.08300
C886        C  0.34561967  0.81987694  0.46429849     1.08300
O887        O  0.22052297  0.54443662  0.17367755    -0.81300
O888        O  0.29838267  0.96186035  0.16421293    -0.81300
O889        O  0.19543147  0.96149438  0.14794811    -0.81400
O890        O  0.32534311  0.52247026  0.11646605    -0.81300
O891        O  0.22999574  0.93162922  0.17683937    -0.81400
O892        O  0.29723439  0.54144643  0.15831457    -0.81300
O893        O  0.32629760  0.97559574  0.11992746    -0.81300
O894        O  0.18064109  0.52370623  0.14341370    -0.81400
C895        C  0.18939789  0.54010138  0.16725338     1.08400
C896        C  0.32612029  0.96540505  0.14836319     1.08200
C897        C  0.19993603  0.94147795  0.17051215     1.08400
C898        C  0.32453612  0.53798007  0.14230429     1.08300
O899        O  0.27332785  0.56725592  0.10921679    -0.81300
O900        O  0.23205088  0.92749966  0.11544682    -0.81400
O901        O  0.19899388  0.52713779  0.07882207    -0.81300
O902        O  0.29307642  0.95491324  0.07260494    -0.81300
O903        O  0.27423050  0.92792814  0.11605592    -0.81400
O904        O  0.22175209  0.56173636  0.11247662    -0.81300
O905        O  0.29032015  0.53666041  0.06851721    -0.81300
O906        O  0.20515586  0.95725311  0.08078195    -0.81400
Co907      Co  0.25239167  0.53626407  0.13834358     1.51500
Co908      Co  0.25096089  0.95985979  0.14630805     1.51700
Co909      Co  0.19841369  0.49242770  0.11169401     1.51600
Co910      Co  0.29000278  0.49639692  0.09516659     1.51500
O911        O  0.24877835  0.49577106  0.11927584    -1.43300
C912        C  0.28593200  0.56415088  0.08159624     1.08300
C913        C  0.21345433  0.92981619  0.09098876     1.08400
C914        C  0.20381258  0.55578384  0.08830082     1.08300
C915        C  0.28919839  0.92877078  0.08848450     1.08300
O916        O  0.18806381  0.52663475  0.35500493    -0.81300
O917        O  0.32448769  0.97449273  0.37426345    -0.81300
O918        O  0.28128230  0.53320809  0.33022975    -0.81400
O919        O  0.21846930  0.96550606  0.32747433    -0.81300
O920        O  0.31489645  0.53651436  0.37140986    -0.81400
O921        O  0.17834315  0.97143214  0.36429988    -0.81300
O922        O  0.29104120  0.96884862  0.33303366    -0.81300
O923        O  0.21852686  0.56775754  0.33696855    -0.81400
C924        C  0.19083300  0.55174668  0.33741650     1.08400
C925        C  0.32029379  0.96838499  0.34502753     1.08200
C926        C  0.31114844  0.53767584  0.34180316     1.08400
C927        C  0.18729499  0.96415455  0.33618733     1.08300
O928        O  0.20853148  0.96122399  0.42439307    -0.81300
O929        O  0.27723842  0.53961361  0.42769852    -0.81400
O930        O  0.21032581  0.55067193  0.39992206    -0.81300
O931        O  0.28507969  0.93352220  0.39137292    -0.81300
O932        O  0.28677946  0.96786503  0.43156784    -0.81400
O933        O  0.16763506  0.51902592  0.41579992    -0.81300
O934        O  0.21816565  0.93011997  0.38351474    -0.81300
O935        O  0.26739842  0.56898390  0.38512573    -0.81400
Co936      Co  0.20481356  0.49879857  0.39361844     1.51500
Co937      Co  0.29738875  0.50388666  0.40153517     1.51700
Co938      Co  0.24183486  0.53644565  0.36153685     1.51600
Co939      Co  0.25354980  0.95241621  0.35894585     1.51500
O940        O  0.25261355  0.49503477  0.37992849    -1.43300
C941        C  0.20950757  0.93319030  0.41197672     1.08300
C942        C  0.27493075  0.56722236  0.41415796     1.08400
C943        C  0.18320840  0.54607076  0.41675172     1.08300
C944        C  0.29124109  0.93983583  0.42040260     1.08300
O945        O  0.03484919  0.68576901  0.21958570    -0.81300
O946        O  0.45114983  0.67706404  0.28437896    -0.81300
O947        O  0.48230578  0.64483585  0.18372508    -0.81400
O948        O  0.02196234  0.64109869  0.32153521    -0.81300
O949        O  0.45876128  0.68124349  0.21345911    -0.81400
O950        O  0.02820501  0.68385834  0.29028247    -0.81300
O951        O  0.45689810  0.63445004  0.31496251    -0.81300
O952        O  0.02195972  0.64327910  0.18995230    -0.81400
C953        C  0.03592187  0.67140656  0.19299213     1.08400
C954        C  0.44957013  0.66365479  0.31185760     1.08200
C955        C  0.46586513  0.67095339  0.18577015     1.08400
C956        C  0.02777429  0.67077572  0.31783539     1.08300
O957        O  0.06782006  0.62863121  0.28657497    -0.81300
O958        O  0.43700543  0.61512314  0.21052956    -0.81400
O959        O  0.03923383  0.58913820  0.21358726    -0.81300
O960        O  0.46218132  0.57797268  0.27792861    -0.81300
O961        O  0.42374188  0.61501439  0.27228504    -0.81400
O962        O  0.07236770  0.63017152  0.22478931    -0.81300
O963        O  0.03616095  0.58517677  0.28428921    -0.81300
O964        O  0.47594036  0.58610957  0.18473732    -0.81400
Co965      Co  0.04623852  0.65702841  0.25527479     1.51500
Co966      Co  0.44783214  0.64779951  0.24629758     1.51700
Co967      Co  0.99437823  0.61097834  0.21747548     1.51600
Co968      Co  0.49489750  0.61012190  0.29635559     1.51500
O969        O  0.49867760  0.63500705  0.25489212    -1.43300
C970        C  0.06502082  0.59865769  0.28798631     1.08300
C971        C  0.44509082  0.59396902  0.18943136     1.08400
C972        C  0.06855855  0.60205204  0.21459303     1.08300
C973        C  0.43101384  0.58622592  0.27737538     1.08300
O974        O  0.03635610  0.86195371  0.18826984    -0.81300
O975        O  0.46124722  0.86332796  0.31455904    -0.81300
O976        O  0.04063942  0.82070808  0.29288015    -0.81400
O977        O  0.46088631  0.82968795  0.21087851    -0.81300
O978        O  0.02628355  0.86268632  0.32036604    -0.81400
O979        O  0.47205908  0.87132881  0.18089268    -0.81300
O980        O  0.45482441  0.82521749  0.27886632    -0.81300
O981        O  0.04629064  0.82053487  0.21899280    -0.81400
C982        C  0.04866748  0.83443865  0.19213810     1.08400
C983        C  0.45369146  0.83471378  0.30747265     1.08200
C984        C  0.03883406  0.83520356  0.31923844     1.08400
C985        C  0.46223301  0.84270695  0.18365899     1.08300
O986        O  0.47341881  0.92875354  0.21703031    -0.81300
O987        O  0.03751942  0.91977516  0.28693223    -0.81400
O988        O  0.07494132  0.87352587  0.23377798    -0.81300
O989        O  0.42525513  0.88685480  0.27676105    -0.81300
O990        O  0.46448103  0.92422805  0.28168027    -0.81400
O991        O  0.04587874  0.91743309  0.22357711    -0.81300
O992        O  0.43144470  0.89324595  0.21605466    -0.81300
O993        O  0.06966768  0.87714319  0.28090194    -0.81400
Co994      Co  0.00604844  0.89454036  0.20692310     1.51500
Co995      Co  0.99702565  0.89241713  0.29634030     1.51700
Co996      Co  0.03807409  0.84946714  0.25542993     1.51600
Co997      Co  0.44670230  0.85820669  0.24583545     1.51500
O998        O  0.99571910  0.87348978  0.25090724    -1.43300
C999        C  0.44270460  0.92154871  0.21115652     1.08300
C1000       C  0.06645593  0.90634619  0.28888311     1.08400
C1001       C  0.07374389  0.90212869  0.22374310     1.08300
C1002       C  0.43381074  0.91514506  0.28332176     1.08300
C1003       C  0.38207917  0.96215679  0.33975340    -0.10300
C1004       C  0.34987327  0.95946497  0.32589241     0.05900
C1005       C  0.34695583  0.94591188  0.29551139    -0.04100
C1006       C  0.37548571  0.93309960  0.28130171    -0.08600
C1007       C  0.40730018  0.93529507  0.29565209     0.05000
C1008       C  0.41086021  0.95104402  0.32454129    -0.03600
Br1009     Br  0.45325232  0.95435634  0.34634448    -0.06900
H1010       H  0.38492809  0.97150247  0.36332985     0.08900
H1011       H  0.37277582  0.92066365  0.25903737     0.06900
Br1012     Br  0.30532822  0.94144776  0.27249096    -0.03700
C1013       C  0.12559604  0.90415008  0.30719360    -0.10300
C1014       C  0.09810667  0.92320997  0.29809558     0.05900
C1015       C  0.10299416  0.95648132  0.29643986    -0.04100
C1016       C  0.13411225  0.96982325  0.30578441    -0.08600
C1017       C  0.16084759  0.95054316  0.31595018     0.05000
C1018       C  0.15673402  0.91738532  0.31523738    -0.03600
Br1019     Br  0.19205902  0.88880227  0.32706452    -0.03300
H1020       H  0.12301094  0.87846202  0.30825751     0.08900
H1021       H  0.13719568  0.99534519  0.30591420     0.06900
Br1022     Br  0.06868303  0.98470845  0.28166884    -0.03700
C1023       C  0.34070264  0.55527151  0.29156705    -0.10300
C1024       C  0.34286130  0.54464736  0.32283504     0.05900
C1025       C  0.37597525  0.54348439  0.33663468    -0.04100
C1026       C  0.40498084  0.55194435  0.31891870    -0.08600
C1027       C  0.40238091  0.56539857  0.28879608     0.05000
C1028       C  0.36949485  0.56717415  0.27545059    -0.03600
Br1029     Br  0.36073828  0.59002537  0.23757560    -0.03300
H1030       H  0.31606040  0.55732165  0.28067310     0.08900
H1031       H  0.42942029  0.55192054  0.33043621     0.06900
Br1032     Br  0.38505431  0.53543190  0.38077142    -0.03700
C1033       C  0.12802098  0.55040704  0.33375612    -0.10300
C1034       C  0.15926079  0.56177716  0.32113685     0.05900
C1035       C  0.15852037  0.58245648  0.29486821    -0.04100
C1036       C  0.12722439  0.59225552  0.28292089    -0.08600
C1037       C  0.09619727  0.58133730  0.29610262     0.05000
C1038       C  0.09688392  0.55976955  0.32147243    -0.03600
Br1039     Br  0.05626170  0.54559144  0.34285219    -0.03300
H1040       H  0.12755439  0.53458673  0.35408078     0.08900
H1041       H  0.12714447  0.60979545  0.26408608     0.06900
Br1042     Br  0.19893943  0.59838333  0.27458666    -0.03700
C1043       C  0.36605599  0.96910719  0.19387919    -0.10300
C1044       C  0.35952736  0.95882506  0.16290677     0.05900
C1045       C  0.38693137  0.94592736  0.14523002    -0.04100
C1046       C  0.41590902  0.93588580  0.16103499    -0.08600
C1047       C  0.42071127  0.94305424  0.19297320     0.05000
C1048       C  0.39761649  0.96344597  0.20783863    -0.03600
Br1049     Br  0.41181297  0.99009396  0.24186308    -0.03300
H1050       H  0.34762295  0.98349657  0.20623583     0.08900
H1051       H  0.43452859  0.92184640  0.14847882     0.06900
Br1052     Br  0.38751718  0.94155610  0.09984761    -0.03700
C1053       C  0.13809953  0.94367411  0.17413618    -0.10300
C1054       C  0.16862847  0.93169629  0.18682228     0.05900
C1055       C  0.16727105  0.91183696  0.21352285    -0.04100
C1056       C  0.13576546  0.90433101  0.22667179    -0.08600
C1057       C  0.10560641  0.91623481  0.21357793     0.05000
C1058       C  0.10692769  0.93587417  0.18691705    -0.03600
Br1059     Br  0.06757731  0.94846834  0.16345880    -0.03300
H1060       H  0.13782231  0.95848771  0.15307842     0.08900
H1061       H  0.13478406  0.88764074  0.24624481     0.06900
Br1062     Br  0.20648049  0.89288976  0.23208381    -0.03700
C1063       C  0.38829718  0.59952995  0.16715947    -0.10300
C1064       C  0.41739073  0.58079346  0.17062269     0.05900
C1065       C  0.41681293  0.54906927  0.16031807    -0.04100
C1066       C  0.38629477  0.53588314  0.15024708    -0.08600
C1067       C  0.35608043  0.55313326  0.15213910     0.05000
C1068       C  0.35743319  0.58573695  0.15903679    -0.03600
Br1069     Br  0.31822301  0.61250613  0.15820124    -0.03300
H1070       H  0.38883264  0.62451003  0.17345657     0.08900
H1071       H  0.38614645  0.51187978  0.14146773     0.06900
Br1072     Br  0.45570929  0.52200330  0.16110796    -0.03700
C1073       C  0.13132586  0.53765197  0.18972756    -0.10300
C1074       C  0.16133134  0.55547862  0.18490915     0.05900
C1075       C  0.16056167  0.58851208  0.19031344    -0.04100
C1076       C  0.13005581  0.60295641  0.19923481    -0.08600
C1077       C  0.09973986  0.58515817  0.20366908     0.05000
C1078       C  0.10092825  0.55194150  0.19905362    -0.03600
Br1079     Br  0.06227158  0.52440005  0.20457428    -0.03300
H1080       H  0.13127352  0.51230916  0.18519721     0.08900
H1081       H  0.13016924  0.62850371  0.20257301     0.06900
Br1082     Br  0.19962494  0.61549734  0.18418435    -0.03700
C1083       C  0.34273747  0.85630130  0.07296137    -0.10300
C1084       C  0.32546333  0.84163045  0.04805970     0.05900
C1085       C  0.29222462  0.85144376  0.04202142    -0.04100
C1086       C  0.28190886  0.88155576  0.05263460    -0.08600
C1087       C  0.30091336  0.89798776  0.07540262     0.05000
C1088       C  0.32802029  0.88155927  0.08922010    -0.03600
Br1089     Br  0.33739205  0.88432631  0.13356430    -0.03300
H1090       H  0.36545246  0.84573909  0.08224760     0.08900
H1091       H  0.25780383  0.89062628  0.04545680     0.06900
Br1092     Br  0.25880363  0.82158930  0.02722461    -0.03700
C1093       C  0.34488936  0.63212590  0.06686192    -0.10300
C1094       C  0.32256219  0.65735974  0.06093431     0.05900
C1095       C  0.28761053  0.65164148  0.06378742    -0.04100
C1096       C  0.27586695  0.62019140  0.06709691    -0.08600
C1097       C  0.29837977  0.59429843  0.06806331     0.05000
C1098       C  0.33327665  0.60083419  0.06882905    -0.03600
Br1099     Br  0.36673197  0.56817169  0.07139984    -0.03300
H1100       H  0.37204930  0.63623081  0.06690482     0.08900
H1101       H  0.24909921  0.61597245  0.06992985     0.06900
Br1102     Br  0.25554146  0.68560185  0.06588002    -0.03700
C1103       C  0.33970467  0.90364183  0.42767026    -0.10300
C1104       C  0.30804686  0.91402300  0.43858120     0.05900
C1105       C  0.28982057  0.89393638  0.45932883    -0.04100
C1106       C  0.30051670  0.86238966  0.46431107    -0.08600
C1107       C  0.33219095  0.85172528  0.45382557     0.05000
C1108       C  0.35260449  0.87385858  0.43655348    -0.03600
Br1109     Br  0.39784246  0.86508310  0.42306524    -0.03300
H1110       H  0.35436229  0.91871294  0.41160973     0.08900
H1111       H  0.28401199  0.84608960  0.47670311     0.06900
Br1112     Br  0.25176241  0.90970141  0.48236826    -0.03700
C1113       C  0.28837205  0.65643885  0.42963106    -0.10300
C1114       C  0.31280965  0.65564131  0.45351703     0.05900
C1115       C  0.32190868  0.62522326  0.46576621    -0.04100
C1116       C  0.30670113  0.59727841  0.45476873    -0.08600
C1117       C  0.28379031  0.59787516  0.42996861     0.05000
C1118       C  0.27414342  0.62814506  0.41757087    -0.03600
Br1119     Br  0.24135736  0.63325778  0.38445292    -0.03300
H1120       H  0.28110627  0.67908045  0.41946985     0.08900
H1121       H  0.31501323  0.57458670  0.46406607     0.06900
Br1122     Br  0.35778309  0.61807169  0.49488257    -0.03700
C1123       C  0.39361698  0.79388047  0.36483049    -0.10300
C1124       C  0.41321124  0.79442587  0.39269242     0.05900
C1125       C  0.44767858  0.80338454  0.39013709    -0.04100
C1126       C  0.46090646  0.81293291  0.36088197    -0.08600
C1127       C  0.44100157  0.81455337  0.33376068     0.05000
C1128       C  0.40721524  0.80395366  0.33559645    -0.03600
Br1129     Br  0.37816290  0.80513587  0.29951171    -0.03300
H1130       H  0.36726344  0.78652003  0.36584687     0.08900
H1131       H  0.48690108  0.81994134  0.35928730     0.06900
Br1132     Br  0.47897753  0.80037042  0.42462126    -0.03700
C1133       C  0.41739098  0.81015961  0.15852287    -0.10300
C1134       C  0.44801358  0.82704088  0.15543203     0.05900
C1135       C  0.46079434  0.83340048  0.12463797    -0.04100
C1136       C  0.44549817  0.81972953  0.09839756    -0.08600
C1137       C  0.41489368  0.80281701  0.10129088     0.05000
C1138       C  0.39974359  0.79983411  0.13180920    -0.03600
Br1139     Br  0.35403370  0.78497100  0.13919428    -0.03300
H1140       H  0.40568881  0.80731945  0.18167377     0.08900
H1141       H  0.45679465  0.82400225  0.07528315     0.06900
Br1142     Br  0.49597563  0.86368071  0.11539782    -0.03700
C1143       C  0.44248826  0.72051324  0.38237004    -0.10300
C1144       C  0.42786246  0.70042321  0.40563669     0.05900
C1145       C  0.41994957  0.66904730  0.39684444    -0.04100
C1146       C  0.42444917  0.65909733  0.36561877    -0.08600
C1147       C  0.43842646  0.67929928  0.34194486     0.05000
C1148       C  0.44767252  0.71046563  0.35080080    -0.03600
Br1149     Br  0.47046602  0.73877183  0.32181160    -0.03300
H1150       H  0.45081962  0.74375292  0.38903882     0.08900
H1151       H  0.41798806  0.63461505  0.36013198     0.06900
Br1152     Br  0.40467503  0.63780861  0.42684588    -0.03700
C1153       C  0.42266381  0.72163948  0.12248827    -0.10300
C1154       C  0.43691560  0.71045365  0.09374190     0.05900
C1155       C  0.46344704  0.68842911  0.09630281    -0.04100
C1156       C  0.47324803  0.67711879  0.12644030    -0.08600
C1157       C  0.45796471  0.68778750  0.15504372     0.05000
C1158       C  0.43277929  0.71099191  0.15246265    -0.03600
Br1159     Br  0.40837724  0.72679048  0.18850662    -0.03300
H1160       H  0.40148831  0.73747407  0.12183910     0.08900
H1161       H  0.49249406  0.65897375  0.12728167     0.06900
Br1162     Br  0.48520298  0.67072570  0.05981541    -0.03700
C1163       C  0.16795756  0.90118080  0.44421618    -0.10300
C1164       C  0.19861771  0.90265960  0.42769583     0.05900
C1165       C  0.21517864  0.87317463  0.42116244    -0.04100
C1166       C  0.20358208  0.84445479  0.43464810    -0.08600
C1167       C  0.17314644  0.84290878  0.45142836     0.05000
C1168       C  0.15404829  0.87183400  0.45412941    -0.03600
Br1169     Br  0.10731576  0.87428197  0.46792033    -0.03300
H1170       H  0.15331194  0.92268231  0.44705753     0.08900
H1171       H  0.21765309  0.82284477  0.43052338     0.06900
Br1172     Br  0.25251565  0.86848197  0.39227442    -0.03700
C1173       C  0.19662850  0.59438633  0.44867102    -0.10300
C1174       C  0.17161389  0.57475315  0.43475942     0.05900
C1175       C  0.13884503  0.58724863  0.43189752    -0.04100
C1176       C  0.13278127  0.61933659  0.43960743    -0.08600
C1177       C  0.15865724  0.63974468  0.45118945     0.05000
C1178       C  0.19039635  0.62623377  0.45710494    -0.03600
Br1179     Br  0.22415152  0.64898776  0.48046713    -0.03300
H1180       H  0.22137862  0.58471774  0.45307831     0.08900
H1181       H  0.10733870  0.62835700  0.43684795     0.06900
Br1182     Br  0.10157184  0.56161577  0.41787434    -0.03700
C1183       C  0.17380741  0.86739751  0.03650755    -0.10300
C1184       C  0.18108566  0.83861541  0.05246637     0.05900
C1185       C  0.19843063  0.84057582  0.08126376    -0.04100
C1186       C  0.20917913  0.87033885  0.09251061    -0.08600
C1187       C  0.20212967  0.89918324  0.07627709     0.05000
C1188       C  0.18347322  0.89728074  0.04810824    -0.03600
Br1189     Br  0.16845689  0.93405780  0.02507184    -0.03300
H1190       H  0.15890691  0.86683747  0.01538880     0.08900
H1191       H  0.22245111  0.87075957  0.11482369     0.06900
Br1192     Br  0.20536727  0.80404261  0.10777162    -0.03700
C1193       C  0.16285368  0.61583627  0.03248796    -0.10300
C1194       C  0.16698830  0.64381569  0.05052577     0.05900
C1195       C  0.17771915  0.64114366  0.08180717    -0.04100
C1196       C  0.18748240  0.61179533  0.09326555    -0.08600
C1197       C  0.18783014  0.58428389  0.07416345     0.05000
C1198       C  0.17376556  0.58615833  0.04376357    -0.03600
Br1199     Br  0.16791686  0.54960821  0.01729538    -0.03300
H1200       H  0.15064706  0.61693552  0.00979405     0.08900
H1201       H  0.19552858  0.61089469  0.11756910     0.06900
Br1202     Br  0.17523559  0.67559694  0.11152476    -0.03700
C1203       C  0.05757544  0.82289364  0.40703838    -0.10300
C1204       C  0.08127591  0.79868645  0.40610955     0.05900
C1205       C  0.09528038  0.79046687  0.37590322    -0.04100
C1206       C  0.07941210  0.80048233  0.34810850    -0.08600
C1207       C  0.05364520  0.82299985  0.34921631     0.05000
C1208       C  0.04551199  0.83659387  0.37924738    -0.03600
Br1209     Br  0.01889879  0.87433979  0.38563280    -0.03300
H1210       H  0.04936983  0.83227807  0.42962684     0.08900
H1211       H  0.08923529  0.79275511  0.32541705     0.06900
Br1212     Br  0.13943496  0.77211104  0.36946183    -0.03700
C1213       C  0.06927448  0.84140511  0.13686219    -0.10300
C1214       C  0.06700882  0.82165885  0.16406408     0.05900
C1215       C  0.08252418  0.79178287  0.16259731    -0.04100
C1216       C  0.09199968  0.77984484  0.13289321    -0.08600
C1217       C  0.08620356  0.79728476  0.10463044     0.05000
C1218       C  0.07797417  0.82940474  0.10729644    -0.03600
Br1219     Br  0.08176487  0.85865847  0.07227809    -0.03300
H1220       H  0.06338757  0.86647040  0.13819360     0.08900
H1221       H  0.10373184  0.75667142  0.13191285     0.06900
Br1222     Br  0.09439625  0.76804332  0.19984867    -0.03700
C1223       C  0.01995257  0.68327494  0.37468429    -0.10300
C1224       C  0.03880690  0.68762579  0.34648477     0.05900
C1225       C  0.07201902  0.69940083  0.34847391    -0.04100
C1226       C  0.08551519  0.70636364  0.37803968    -0.08600
C1227       C  0.06620740  0.70366543  0.40631750     0.05000
C1228       C  0.03269407  0.69225404  0.40420864    -0.03600
Br1229     Br  0.00394862  0.68583475  0.44054475    -0.03300
H1230       H  0.99580720  0.67109890  0.37406545     0.08900
H1231       H  0.11211184  0.71237659  0.37879825     0.06900
Br1232     Br  0.10199049  0.70134698  0.31238060    -0.03700
C1233       C  0.06647777  0.66307290  0.14364454    -0.10300
C1234       C  0.04975001  0.68502009  0.16311118     0.05900
C1235       C  0.03978784  0.71434106  0.14981962    -0.04100
C1236       C  0.04737352  0.72105119  0.11768462    -0.08600
C1237       C  0.06439755  0.69881498  0.09858618     0.05000
C1238       C  0.07262308  0.66923429  0.11176909    -0.03600
Br1239     Br  0.08974021  0.63512701  0.08668437    -0.03300
H1240       H  0.07302976  0.63981485  0.15288194     0.08900
H1241       H  0.04023645  0.74375272  0.10766142     0.06900
Br1242     Br  0.01358529  0.74444250  0.17346262    -0.03700
O1243       O  0.06817596  0.70502192  0.54166227    -0.81300
O1244       O  0.07912772  0.79018810  0.96372003    -0.81300
O1245       O  0.12298883  0.76666718  0.57534894    -0.81400
O1246       O  0.11377961  0.72196832  0.93393824    -0.81300
O1247       O  0.08100087  0.78928528  0.54752034    -0.81400
O1248       O  0.06942621  0.70735597  0.96404857    -0.81300
O1249       O  0.11979233  0.76789309  0.93390123    -0.81300
O1250       O  0.11207203  0.71942064  0.57213838    -0.81400
C1251       C  0.08171031  0.70884937  0.56895726     1.08400
C1252       C  0.09347907  0.78489935  0.93643600     1.08200
C1253       C  0.09652672  0.78364807  0.57396554     1.08400
C1254       C  0.08340539  0.71135925  0.93667708     1.08300
O1255       O  0.12016605  0.67242436  0.97739216    -0.81300
O1256       O  0.13640141  0.81301355  0.52703781    -0.81400
O1257       O  0.17006354  0.70051390  0.54393734    -0.81300
O1258       O  0.17376979  0.78388182  0.95879247    -0.81300
O1259       O  0.13383827  0.81401961  0.98141416    -0.81400
O1260       O  0.12474580  0.67328432  0.52608278    -0.81300
O1261       O  0.16704309  0.69788167  0.95917418    -0.81300
O1262       O  0.17617388  0.78039653  0.54570876    -0.81400
Co1263     Co  0.09786154  0.70574058  0.50306889     1.51500
Co1264     Co  0.10462738  0.78423178  0.00493625     1.51700
Co1265     Co  0.14546116  0.74138825  0.54281036     1.51600
Co1266     Co  0.14603001  0.74224129  0.96374597     1.51500
O1267       O  0.12385841  0.74359618  0.50347015    -1.43300
C1268       C  0.14883038  0.67203722  0.96306409     1.08300
C1269       C  0.16449721  0.80870997  0.54101883     1.08400
C1270       C  0.15387861  0.67427814  0.53902387     1.08300
C1271       C  0.16037671  0.81159172  0.96454459     1.08300
O1272       O  0.38775077  0.72701695  0.56789048    -0.81300
O1273       O  0.36922599  0.76996310  0.92268349    -0.81300
O1274       O  0.42596259  0.71331157  0.96221867    -0.81400
O1275       O  0.41455577  0.79340949  0.54537071    -0.81300
O1276       O  0.38154885  0.72356678  0.93155757    -0.81400
O1277       O  0.37256542  0.77316132  0.57439205    -0.81300
O1278       O  0.41231445  0.78951207  0.94975786    -0.81300
O1279       O  0.42986653  0.71509327  0.53492633    -0.81400
C1280       C  0.41818885  0.71817022  0.56347376     1.08400
C1281       C  0.39737315  0.78451000  0.92336924     1.08200
C1282       C  0.41190982  0.71388022  0.93479999     1.08400
C1283       C  0.39961580  0.78939455  0.57217452     1.08300
O1284       O  0.32687782  0.78621188  0.53879240    -0.81300
O1285       O  0.31813569  0.71328599  0.96083540    -0.81400
O1286       O  0.36692695  0.68329281  0.53428961    -0.81300
O1287       O  0.37246147  0.82053214  0.98219734    -0.81300
O1288       O  0.33023908  0.79331190  0.95795051    -0.81400
O1289       O  0.32235644  0.71284117  0.54510893    -0.81300
O1290       O  0.36924468  0.81648497  0.51768149    -0.81300
O1291       O  0.36215022  0.68220608  0.97113759    -0.81400
Co1292     Co  0.35452770  0.74805822  0.53944307     1.51500
Co1293     Co  0.35148471  0.74914326  0.96060730     1.51700
Co1294     Co  0.39641152  0.70256073  0.50026600     1.51600
Co1295     Co  0.40716650  0.78746289  0.99807190     1.51500
O1296       O  0.37763913  0.74765280  0.49936066    -1.43300
C1297       C  0.34069849  0.81322422  0.53357371     1.08300
C1298       C  0.33127584  0.68551324  0.96294853     1.08400
C1299       C  0.33730819  0.68630549  0.54608227     1.08300
C1300       C  0.34561929  0.81987655  0.96429877     1.08300
O1301       O  0.22052265  0.54443700  0.67367708    -0.81300
O1302       O  0.29838354  0.96185747  0.66421141    -0.81300
O1303       O  0.19543168  0.96149433  0.64794820    -0.81400
O1304       O  0.32534312  0.52247022  0.61646626    -0.81300
O1305       O  0.22999598  0.93162952  0.67683986    -0.81400
O1306       O  0.29723417  0.54144659  0.65831456    -0.81300
O1307       O  0.32629868  0.97559569  0.61992682    -0.81300
O1308       O  0.18064092  0.52370634  0.64341324    -0.81400
C1309       C  0.18939760  0.54010170  0.66725283     1.08400
C1310       C  0.32612121  0.96540360  0.64836204     1.08200
C1311       C  0.19993625  0.94147807  0.67051242     1.08400
C1312       C  0.32453598  0.53798017  0.64230441     1.08300
O1313       O  0.27332800  0.56725589  0.60921666    -0.81300
O1314       O  0.23205258  0.92749916  0.61544743    -0.81400
O1315       O  0.19899393  0.52713740  0.57882162    -0.81300
O1316       O  0.29307726  0.95491292  0.57260512    -0.81300
O1317       O  0.27422966  0.92792838  0.61605594    -0.81400
O1318       O  0.22175225  0.56173614  0.61247593    -0.81300
O1319       O  0.29032067  0.53666027  0.56851732    -0.81300
O1320       O  0.20515652  0.95725220  0.58078258    -0.81400
Co1321     Co  0.25239156  0.53626412  0.63834337     1.51500
Co1322     Co  0.25096048  0.95986059  0.64630870     1.51700
Co1323     Co  0.19841372  0.49242752  0.61169386     1.51600
Co1324     Co  0.29000291  0.49639681  0.59516678     1.51500
O1325       O  0.24877835  0.49577100  0.61927584    -1.43300
C1326       C  0.28593248  0.56415078  0.58159625     1.08300
C1327       C  0.21345527  0.92981539  0.59098963     1.08400
C1328       C  0.20381274  0.55578352  0.58830016     1.08300
C1329       C  0.28919856  0.92877064  0.58848480     1.08300
O1330       O  0.18806328  0.52663463  0.85500550    -0.81300
O1331       O  0.32448772  0.97449238  0.87426411    -0.81300
O1332       O  0.28128168  0.53320799  0.83022964    -0.81400
O1333       O  0.21846949  0.96550562  0.82747451    -0.81300
O1334       O  0.31489612  0.53651428  0.87140958    -0.81400
O1335       O  0.17834310  0.97143182  0.86429983    -0.81300
O1336       O  0.29104141  0.96884825  0.83303424    -0.81300
O1337       O  0.21852624  0.56775732  0.83696880    -0.81400
C1338       C  0.19083236  0.55174648  0.83741695     1.08400
C1339       C  0.32029397  0.96838460  0.84502819     1.08200
C1340       C  0.31114789  0.53767580  0.84180288     1.08400
C1341       C  0.18729513  0.96415412  0.83618736     1.08300
O1342       O  0.20853077  0.96122367  0.92439318    -0.81300
O1343       O  0.27723831  0.53961371  0.92769844    -0.81400
O1344       O  0.21032579  0.55067178  0.89992241    -0.81300
O1345       O  0.28507963  0.93352176  0.89137376    -0.81300
O1346       O  0.28677930  0.96786465  0.93156856    -0.81400
O1347       O  0.16763517  0.51902578  0.91580062    -0.81300
O1348       O  0.21816550  0.93011972  0.88351489    -0.81300
O1349       O  0.26739820  0.56898388  0.88512560    -0.81400
Co1350     Co  0.20481343  0.49879840  0.89361881     1.51500
Co1351     Co  0.29738860  0.50388670  0.90153518     1.51700
Co1352     Co  0.24183449  0.53644553  0.86153699     1.51600
Co1353     Co  0.25354986  0.95241588  0.85894630     1.51500
O1354       O  0.25261337  0.49503471  0.87992864    -1.43300
C1355       C  0.20950696  0.93319003  0.91197674     1.08300
C1356       C  0.27493066  0.56722241  0.91415780     1.08400
C1357       C  0.18320856  0.54607060  0.91675231     1.08300
C1358       C  0.29124044  0.93983537  0.92040357     1.08300
O1359       O  0.03484945  0.68576939  0.71958598    -0.81300
O1360       O  0.45114968  0.67706411  0.78437892    -0.81300
O1361       O  0.48230581  0.64483579  0.68372506    -0.81400
O1362       O  0.02196221  0.64109889  0.82153543    -0.81300
O1363       O  0.45876147  0.68124357  0.71345905    -0.81400
O1364       O  0.02820512  0.68385858  0.79028278    -0.81300
O1365       O  0.45689746  0.63444996  0.81496234    -0.81300
O1366       O  0.02195970  0.64327955  0.68995259    -0.81400
C1367       C  0.03592196  0.67140696  0.69299238     1.08400
C1368       C  0.44956980  0.66365480  0.81185753     1.08200
C1369       C  0.46586530  0.67095342  0.68577011     1.08400
C1370       C  0.02777427  0.67077589  0.81783567     1.08300
O1371       O  0.06781984  0.62863118  0.78657522    -0.81300
O1372       O  0.43700528  0.61512332  0.71052943    -0.81400
O1373       O  0.03923366  0.58913856  0.71358757    -0.81300
O1374       O  0.46218060  0.57797271  0.77792829    -0.81300
O1375       O  0.42374137  0.61501463  0.77228473    -0.81400
O1376       O  0.07236766  0.63017176  0.72478957    -0.81300
O1377       O  0.03616033  0.58517696  0.78428952    -0.81300
O1378       O  0.47594014  0.58610953  0.68473731    -0.81400
Co1379     Co  0.04623857  0.65702867  0.75527508     1.51500
Co1380     Co  0.44783198  0.64779965  0.74629746     1.51700
Co1381     Co  0.99437816  0.61097891  0.71747579     1.51600
Co1382     Co  0.49489686  0.61012172  0.79635555     1.51500
O1383       O  0.49867731  0.63500691  0.75489213    -1.43300
C1384       C  0.06502031  0.59865767  0.78798663     1.08300
C1385       C  0.44509063  0.59396913  0.68943129     1.08400
C1386       C  0.06855841  0.60205232  0.71459324     1.08300
C1387       C  0.43101314  0.58622610  0.77737494     1.08300
O1388       O  0.03635600  0.86195375  0.68827000    -0.81300
O1389       O  0.46124739  0.86332788  0.81455890    -0.81300
O1390       O  0.04063886  0.82070836  0.79288055    -0.81400
O1391       O  0.46088663  0.82968758  0.71087843    -0.81300
O1392       O  0.02628314  0.86268672  0.82036637    -0.81400
O1393       O  0.47205969  0.87132831  0.68089251    -0.81300
O1394       O  0.45482455  0.82521731  0.77886632    -0.81300
O1395       O  0.04629053  0.82053492  0.71899296    -0.81400
C1396       C  0.04866738  0.83443870  0.69213824     1.08400
C1397       C  0.45369169  0.83471368  0.80747264     1.08200
C1398       C  0.03883349  0.83520388  0.81923884     1.08400
C1399       C  0.46223354  0.84270649  0.68365887     1.08300
O1400       O  0.47341946  0.92875308  0.71702995    -0.81300
O1401       O  0.03751943  0.91977531  0.78693231    -0.81400
O1402       O  0.07494119  0.87352591  0.73377822    -0.81300
O1403       O  0.42525537  0.88685476  0.77676079    -0.81300
O1404       O  0.46448134  0.92422793  0.78168020    -0.81400
O1405       O  0.04587873  0.91743316  0.72357717    -0.81300
O1406       O  0.43144523  0.89324560  0.71605434    -0.81300
O1407       O  0.06966746  0.87714315  0.78090217    -0.81400
Co1408     Co  0.00604835  0.89454044  0.70692321     1.51500
Co1409     Co  0.99702547  0.89241754  0.79634043     1.51700
Co1410     Co  0.03807384  0.84946723  0.75543012     1.51600
Co1411     Co  0.44670260  0.85820645  0.74583530     1.51500
O1412       O  0.99571891  0.87349001  0.75090740    -1.43300
C1413       C  0.44270528  0.92154827  0.71115601     1.08300
C1414       C  0.06645586  0.90634619  0.78888328     1.08400
C1415       C  0.07374387  0.90212871  0.72374326     1.08300
C1416       C  0.43381102  0.91514498  0.78332169     1.08300
C1417       C  0.38207944  0.96215609  0.83975410    -0.10300
C1418       C  0.34987353  0.95946457  0.82589306     0.05900
C1419       C  0.34695612  0.94591188  0.79551185    -0.04100
C1420       C  0.37548599  0.93309971  0.78130199    -0.08600
C1421       C  0.40730048  0.93529494  0.79565235     0.05000
C1422       C  0.41086049  0.95104348  0.82454179    -0.03600
Br1423     Br  0.45325264  0.95435551  0.84634497    -0.06900
H1424       H  0.38492835  0.97150148  0.86333067     0.08900
H1425       H  0.37277607  0.92066408  0.75903748     0.06900
Br1426     Br  0.30532856  0.94144822  0.77249126    -0.03700
C1427       C  0.12559593  0.90414981  0.80719386    -0.10300
C1428       C  0.09810668  0.92320982  0.79809574     0.05900
C1429       C  0.10299440  0.95648113  0.79643985    -0.04100
C1430       C  0.13411259  0.96982292  0.80578430    -0.08600
C1431       C  0.16084780  0.95054274  0.81595015     0.05000
C1432       C  0.15673400  0.91738491  0.81523757    -0.03600
Br1433     Br  0.19205875  0.88880171  0.82706493    -0.03300
H1434       H  0.12301064  0.87846177  0.80825791     0.08900
H1435       H  0.13719616  0.99534486  0.80591400     0.06900
Br1436     Br  0.06868342  0.98470839  0.78166878    -0.03700
C1437       C  0.34070173  0.55527209  0.79156674    -0.10300
C1438       C  0.34286059  0.54464747  0.82283457     0.05900
C1439       C  0.37597464  0.54348427  0.83663398    -0.04100
C1440       C  0.40498014  0.55194416  0.81891787    -0.08600
C1441       C  0.40238006  0.56539884  0.78879548     0.05000
C1442       C  0.36949389  0.56717490  0.77545026    -0.03600
Br1443     Br  0.36073714  0.59002701  0.73757578    -0.03300
H1444       H  0.31605942  0.55732254  0.78067301     0.08900
H1445       H  0.42941968  0.55192005  0.83043521     0.06900
Br1446     Br  0.38505401  0.53543184  0.88077067    -0.03700
C1447       C  0.12802028  0.55040687  0.83375663    -0.10300
C1448       C  0.15926011  0.56177689  0.82113731     0.05900
C1449       C  0.15851971  0.58245602  0.79486851    -0.04100
C1450       C  0.12722377  0.59225505  0.78292115    -0.08600
C1451       C  0.09619662  0.58133705  0.79610298     0.05000
C1452       C  0.09688322  0.55976941  0.82147291    -0.03600
Br1453     Br  0.05626096  0.54559143  0.84285268    -0.03300
H1454       H  0.12755368  0.53458663  0.85408135     0.08900
H1455       H  0.12714390  0.60979484  0.76408621     0.06900
Br1456     Br  0.19893877  0.59838261  0.77458677    -0.03700
C1457       C  0.36605665  0.96910610  0.69387811    -0.10300
C1458       C  0.35952821  0.95882373  0.66290573     0.05900
C1459       C  0.38693238  0.94592622  0.64522909    -0.04100
C1460       C  0.41591011  0.93588504  0.66103417    -0.08600
C1461       C  0.42071216  0.94305368  0.69297238     0.05000
C1462       C  0.39761714  0.96344524  0.70783767    -0.03600
Br1463     Br  0.41181322  0.99009323  0.74186227    -0.03300
H1464       H  0.34762342  0.98349538  0.70623462     0.08900
H1465       H  0.43452983  0.92184570  0.64847814     0.06900
Br1466     Br  0.38751798  0.94155455  0.59984674    -0.03700
C1467       C  0.13809971  0.94367433  0.67413653    -0.10300
C1468       C  0.16862864  0.93169645  0.68682259     0.05900
C1469       C  0.16727115  0.91183700  0.71352309    -0.04100
C1470       C  0.13576552  0.90433095  0.72667194    -0.08600
C1471       C  0.10560648  0.91623477  0.71357808     0.05000
C1472       C  0.10692783  0.93587423  0.68691727    -0.03600
Br1473     Br  0.06757752  0.94846831  0.66345888    -0.03300
H1474       H  0.13782252  0.95848805  0.65307885     0.08900
H1475       H  0.13478409  0.88764063  0.74624492     0.06900
Br1476     Br  0.20648057  0.89288976  0.73208404    -0.03700
C1477       C  0.38829697  0.59953009  0.66715950    -0.10300
C1478       C  0.41739053  0.58079360  0.67062267     0.05900
C1479       C  0.41681273  0.54906940  0.66031810    -0.04100
C1480       C  0.38629456  0.53588327  0.65024720    -0.08600
C1481       C  0.35608023  0.55313339  0.65213924     0.05000
C1482       C  0.35743298  0.58573709  0.65903686    -0.03600
Br1483     Br  0.31822284  0.61250630  0.65820111    -0.03300
H1484       H  0.38883246  0.62451018  0.67345654     0.08900
H1485       H  0.38614624  0.51187992  0.64146785     0.06900
Br1486     Br  0.45570906  0.52200340  0.66110796    -0.03700
C1487       C  0.13132550  0.53765232  0.68972698    -0.10300
C1488       C  0.16133098  0.55547898  0.68490850     0.05900
C1489       C  0.16056135  0.58851242  0.69031296    -0.04100
C1490       C  0.13005557  0.60295670  0.69923465    -0.08600
C1491       C  0.09973964  0.58515845  0.70366904     0.05000
C1492       C  0.10092798  0.55194181  0.69905336    -0.03600
Br1493     Br  0.06227134  0.52440035  0.70457419    -0.03300
H1494       H  0.13127312  0.51230953  0.68519653     0.08900
H1495       H  0.13016904  0.62850398  0.70257300     0.06900
Br1496     Br  0.19962454  0.61549773  0.68418370    -0.03700
C1497       C  0.34273739  0.85630089  0.57296172    -0.10300
C1498       C  0.32546334  0.84163020  0.54805991     0.05900
C1499       C  0.29222469  0.85144359  0.54202162    -0.04100
C1500       C  0.28190887  0.88155552  0.55263490    -0.08600
C1501       C  0.30091326  0.89798737  0.57540314     0.05000
C1502       C  0.32802017  0.88155880  0.58922056    -0.03600
Br1503     Br  0.33739197  0.88432575  0.63356472    -0.03300
H1504       H  0.36545237  0.84573863  0.58224790     0.08900
H1505       H  0.25780406  0.89062621  0.54545678     0.06900
Br1506     Br  0.25880361  0.82158920  0.52722408    -0.03700
C1507       C  0.34489002  0.63212580  0.56686206    -0.10300
C1508       C  0.32256283  0.65735965  0.56093451     0.05900
C1509       C  0.28761119  0.65164138  0.56378766    -0.04100
C1510       C  0.27586761  0.62019131  0.56709703    -0.08600
C1511       C  0.29838040  0.59429832  0.56806339     0.05000
C1512       C  0.33327730  0.60083408  0.56882919    -0.03600
Br1513     Br  0.36673261  0.56817156  0.57140005    -0.03300
H1514       H  0.37204996  0.63623073  0.56690492     0.08900
H1515       H  0.24909986  0.61597236  0.56992996     0.06900
Br1516     Br  0.25554212  0.68560174  0.56588046    -0.03700
C1517       C  0.33970318  0.90364072  0.92767328    -0.10300
C1518       C  0.30804598  0.91402267  0.93858203     0.05900
C1519       C  0.28981857  0.89393490  0.95932897    -0.04100
C1520       C  0.30052150  0.86239442  0.96430495    -0.08600
C1521       C  0.33218983  0.85172408  0.95382631     0.05000
C1522       C  0.35260450  0.87385854  0.93655480    -0.03600
Br1523     Br  0.39784210  0.86508346  0.92306719    -0.03300
H1524       H  0.35436265  0.91871396  0.91161188     0.08900
H1525       H  0.28399208  0.84607021  0.97671309     0.06900
Br1526     Br  0.25176064  0.90969960  0.98236808    -0.03700
C1527       C  0.28837205  0.65643886  0.92963083    -0.10300
C1528       C  0.31280964  0.65564129  0.95351682     0.05900
C1529       C  0.32190865  0.62522325  0.96576601    -0.04100
C1530       C  0.30670112  0.59727842  0.95476850    -0.08600
C1531       C  0.28379031  0.59787520  0.92996838     0.05000
C1532       C  0.27414340  0.62814510  0.91757064    -0.03600
Br1533     Br  0.24135727  0.63325781  0.88445277    -0.03300
H1534       H  0.28110628  0.67908047  0.91946963     0.08900
H1535       H  0.31501320  0.57458670  0.96406584     0.06900
Br1536     Br  0.35778294  0.61807166  0.99488250    -0.03700
C1537       C  0.39361744  0.79388045  0.86483075    -0.10300
C1538       C  0.41321170  0.79442603  0.89269269     0.05900
C1539       C  0.44767901  0.80338481  0.89013731    -0.04100
C1540       C  0.46090686  0.81293315  0.86088213    -0.08600
C1541       C  0.44100194  0.81455335  0.83376081     0.05000
C1542       C  0.40721566  0.80395353  0.83559666    -0.03600
Br1543     Br  0.37816328  0.80513546  0.79951194    -0.03300
H1544       H  0.36726394  0.78651992  0.86584715     0.08900
H1545       H  0.48690136  0.81994174  0.85928745     0.06900
Br1546     Br  0.47897802  0.80037106  0.92462147    -0.03700
C1547       C  0.41739151  0.81015937  0.65852261    -0.10300
C1548       C  0.44801422  0.82704045  0.65543186     0.05900
C1549       C  0.46079510  0.83340007  0.62463784    -0.04100
C1550       C  0.44549889  0.81972929  0.59839736    -0.08600
C1551       C  0.41489428  0.80281697  0.60129060     0.05000
C1552       C  0.39974409  0.79983410  0.63180888    -0.03600
Br1553     Br  0.35403405  0.78497135  0.63919385    -0.03300
H1554       H  0.40568924  0.80731926  0.68167347     0.08900
H1555       H  0.45679544  0.82400199  0.57528297     0.06900
Br1556     Br  0.49597655  0.86368018  0.61539780    -0.03700
C1557       C  0.44248829  0.72051317  0.88237010    -0.10300
C1558       C  0.42786251  0.70042317  0.90563677     0.05900
C1559       C  0.41994957  0.66904727  0.89684449    -0.04100
C1560       C  0.42444904  0.65909736  0.86561879    -0.08600
C1561       C  0.43842633  0.67929928  0.84194487     0.05000
C1562       C  0.44767251  0.71046560  0.85080085    -0.03600
Br1563     Br  0.47046602  0.73877179  0.82181165    -0.03300
H1564       H  0.45081968  0.74375300  0.88903890     0.08900
H1565       H  0.41798783  0.63461508  0.86013199     0.06900
Br1566     Br  0.40467502  0.63780856  0.92684592    -0.03700
C1567       C  0.42266404  0.72163952  0.62248820    -0.10300
C1568       C  0.43691589  0.71045374  0.59374184     0.05900
C1569       C  0.46344732  0.68842919  0.59630277    -0.04100
C1570       C  0.47324827  0.67711885  0.62644027    -0.08600
C1571       C  0.45796491  0.68778754  0.65504367     0.05000
C1572       C  0.43277947  0.71099192  0.65246259    -0.03600
Br1573     Br  0.40837728  0.72679039  0.68850653    -0.03300
H1574       H  0.40148851  0.73747408  0.62183903     0.08900
H1575       H  0.49249430  0.65897381  0.62728166     0.06900
Br1576     Br  0.48520327  0.67072578  0.55981539    -0.03700
C1577       C  0.16795648  0.90118049  0.94421566    -0.10300
C1578       C  0.19861675  0.90265930  0.92769552     0.05900
C1579       C  0.21517767  0.87317434  0.92116205    -0.04100
C1580       C  0.20358111  0.84445451  0.93464766    -0.08600
C1581       C  0.17314546  0.84290853  0.95142789     0.05000
C1582       C  0.15404719  0.87183367  0.95412879    -0.03600
Br1583     Br  0.10731457  0.87428147  0.96791946    -0.03300
H1584       H  0.15331085  0.92268200  0.94705699     0.08900
H1585       H  0.21765217  0.82284452  0.93052301     0.06900
Br1586     Br  0.25251491  0.86848173  0.89227424    -0.03700
C1587       C  0.19662887  0.59438623  0.94867152    -0.10300
C1588       C  0.17161420  0.57475303  0.93476002     0.05900
C1589       C  0.13884539  0.58724857  0.93189802    -0.04100
C1590       C  0.13278170  0.61933657  0.93960775    -0.08600
C1591       C  0.15865767  0.63974466  0.95118974     0.05000
C1592       C  0.19039677  0.62623374  0.95710531    -0.03600
Br1593     Br  0.22415195  0.64898780  0.98046743    -0.03300
H1594       H  0.22137897  0.58471761  0.95307885     0.08900
H1595       H  0.10733915  0.62835701  0.93684819     0.06900
Br1596     Br  0.10157217  0.56161575  0.91787484    -0.03700
C1597       C  0.17380856  0.86739677  0.53650834    -0.10300
C1598       C  0.18108661  0.83861465  0.55246717     0.05900
C1599       C  0.19843154  0.84057498  0.58126462    -0.04100
C1600       C  0.20918002  0.87033802  0.59251159    -0.08600
C1601       C  0.20213062  0.89918240  0.57627806     0.05000
C1602       C  0.18347431  0.89727995  0.54810912    -0.03600
Br1603     Br  0.16845813  0.93405696  0.52507255    -0.03300
H1604       H  0.15890826  0.86683680  0.51538947     0.08900
H1605       H  0.22245193  0.87075877  0.61482470     0.06900
Br1606     Br  0.20536826  0.80404169  0.60777232    -0.03700
C1607       C  0.16285315  0.61583586  0.53248748    -0.10300
C1608       C  0.16698791  0.64381532  0.55052523     0.05900
C1609       C  0.17771926  0.64114335  0.58180647    -0.04100
C1610       C  0.18748278  0.61179508  0.59326475    -0.08600
C1611       C  0.18783031  0.58428358  0.57416272     0.05000
C1612       C  0.17376530  0.58615795  0.54376299    -0.03600
Br1613     Br  0.16791640  0.54960778  0.51729491    -0.03300
H1614       H  0.15064628  0.61693508  0.50979368     0.08900
H1615       H  0.19552932  0.61089456  0.61756820     0.06900
Br1616     Br  0.17523600  0.67559661  0.61152411    -0.03700
C1617       C  0.05757457  0.82289367  0.90703885    -0.10300
C1618       C  0.08127483  0.79868628  0.90610998     0.05900
C1619       C  0.09527941  0.79046686  0.87590366    -0.04100
C1620       C  0.07941123  0.80048245  0.84810895    -0.08600
C1621       C  0.05364448  0.82300011  0.84921676     0.05000
C1622       C  0.04551141  0.83659418  0.87924785    -0.03600
Br1623     Br  0.01889909  0.87434068  0.88563324    -0.03300
H1624       H  0.04936905  0.83227812  0.92962733     0.08900
H1625       H  0.08923447  0.79275529  0.82541750     0.06900
Br1626     Br  0.13943418  0.77211144  0.86946232    -0.03700
C1627       C  0.06927428  0.84140520  0.63686222    -0.10300
C1628       C  0.06700867  0.82165891  0.66406411     0.05900
C1629       C  0.08252405  0.79178295  0.66259724    -0.04100
C1630       C  0.09199951  0.77984497  0.63289309    -0.08600
C1631       C  0.08620339  0.79728491  0.60463032     0.05000
C1632       C  0.07797397  0.82940489  0.60729641    -0.03600
Br1633     Br  0.08176469  0.85865872  0.57227816    -0.03300
H1634       H  0.06338740  0.86647050  0.63819369     0.08900
H1635       H  0.10373170  0.75667157  0.63191270     0.06900
Br1636     Br  0.09439628  0.76804340  0.69984855    -0.03700
C1637       C  0.01995260  0.68327443  0.87468465    -0.10300
C1638       C  0.03880678  0.68762580  0.84648511     0.05900
C1639       C  0.07201878  0.69940107  0.84847420    -0.04100
C1640       C  0.08551500  0.70636365  0.87803998    -0.08600
C1641       C  0.06620735  0.70366496  0.90631783     0.05000
C1642       C  0.03269414  0.69225328  0.90420904    -0.03600
Br1643     Br  0.00394896  0.68583323  0.94054523    -0.03300
H1644       H  0.99580735  0.67109818  0.87406579     0.08900
H1645       H  0.11211160  0.71237680  0.87879848     0.06900
Br1646     Br  0.10199010  0.70134777  0.81238081    -0.03700
C1647       C  0.06647778  0.66307313  0.64364476    -0.10300
C1648       C  0.04975008  0.68502040  0.66311136     0.05900
C1649       C  0.03978784  0.71434129  0.64981967    -0.04100
C1650       C  0.04737343  0.72105129  0.61768462    -0.08600
C1651       C  0.06439745  0.69881503  0.59858622     0.05000
C1652       C  0.07262304  0.66923440  0.61176926    -0.03600
Br1653     Br  0.08974024  0.63512706  0.58668467    -0.03300
H1654       H  0.07302980  0.63981512  0.65288223     0.08900
H1655       H  0.04023632  0.74375277  0.60766135     0.06900
Br1656     Br  0.01358528  0.74444277  0.67346261    -0.03700
O1657       O  0.56817588  0.20502061  0.04166187    -0.81300
O1658       O  0.57912817  0.29018728  0.46371879    -0.81300
O1659       O  0.62298811  0.26666660  0.07534806    -0.81400
O1660       O  0.61377861  0.22196709  0.43393795    -0.81300
O1661       O  0.58099993  0.28928419  0.04751934    -0.81400
O1662       O  0.56942552  0.20735465  0.46404861    -0.81300
O1663       O  0.61979249  0.26789181  0.43389995    -0.81300
O1664       O  0.61207198  0.21941982  0.07213774    -0.81400
C1665       C  0.58171034  0.20884824  0.06895680     1.08400
C1666       C  0.59347939  0.28489833  0.43643471     1.08200
C1667       C  0.59652579  0.28364722  0.07396458     1.08400
C1668       C  0.58340439  0.21135802  0.43667699     1.08300
O1669       O  0.62016584  0.17242321  0.47739176    -0.81300
O1670       O  0.63640014  0.31301320  0.02703666    -0.81400
O1671       O  0.67006356  0.20051366  0.04393627    -0.81300
O1672       O  0.67376943  0.28388074  0.45879157    -0.81300
O1673       O  0.63383830  0.31401879  0.48141348    -0.81400
O1674       O  0.62474599  0.17328356  0.02608207    -0.81300
O1675       O  0.66704275  0.19788049  0.45917346    -0.81300
O1676       O  0.67617293  0.28039648  0.04570755    -0.81400
Co1677     Co  0.59786118  0.20573949  0.00306830     1.51500
Co1678     Co  0.60462740  0.28423103  0.50493539     1.51700
Co1679     Co  0.64546066  0.24138778  0.04280946     1.51600
Co1680     Co  0.64602963  0.24224011  0.46374523     1.51500
O1681       O  0.62385773  0.24359532  0.00346929    -1.43300
C1682       C  0.64883011  0.17203602  0.46306357     1.08300
C1683       C  0.66449605  0.30870987  0.04101760     1.08400
C1684       C  0.65387893  0.17427769  0.03902289     1.08300
C1685       C  0.66037658  0.31159075  0.46454377     1.08300
O1686       O  0.88775154  0.22701718  0.06789055    -0.81300
O1687       O  0.86922631  0.26996204  0.42268349    -0.81300
O1688       O  0.92596288  0.21331086  0.46221903    -0.81400
O1689       O  0.91455625  0.29340951  0.04537063    -0.81300
O1690       O  0.88154913  0.22356576  0.43155786    -0.81400
O1691       O  0.87256595  0.27316140  0.07439203    -0.81300
O1692       O  0.91231475  0.28951115  0.44975776    -0.81300
O1693       O  0.92986741  0.21509352  0.03492647    -0.81400
C1694       C  0.91818968  0.21817065  0.06347387     1.08400
C1695       C  0.89737348  0.28450894  0.42336917     1.08200
C1696       C  0.91191013  0.21387940  0.43480035     1.08400
C1697       C  0.89961631  0.28939469  0.07217447     1.08300
O1698       O  0.82687826  0.28621159  0.03879214    -0.81300
O1699       O  0.81813601  0.21328498  0.46083532    -0.81400
O1700       O  0.86692824  0.18329253  0.03429017    -0.81300
O1701       O  0.87246155  0.32053117  0.48219703    -0.81300
O1702       O  0.83023910  0.29331065  0.45795051    -0.81400
O1703       O  0.82235746  0.21284070  0.04510917    -0.81300
O1704       O  0.86924510  0.31648460  0.01768108    -0.81300
O1705       O  0.86215048  0.18220516  0.47113802    -0.81400
Co1706     Co  0.85452832  0.24805802  0.03944311     1.51500
Co1707     Co  0.85148498  0.24914227  0.46060739     1.51700
Co1708     Co  0.89641247  0.20256034  0.00026635     1.51600
Co1709     Co  0.90716684  0.28746220  0.49807176     1.51500
O1710       O  0.87763979  0.24765229  0.99936074    -1.43300
C1711       C  0.84069890  0.31322392  0.03357331     1.08300
C1712       C  0.83127621  0.18551226  0.46294851     1.08400
C1713       C  0.83730945  0.18630514  0.04608275     1.08300
C1714       C  0.84561932  0.31987542  0.46429867     1.08300
O1715       O  0.72052233  0.04443698  0.17367591    -0.81300
O1716       O  0.79838295  0.46186042  0.16421347    -0.81300
O1717       O  0.69543159  0.46149398  0.14794701    -0.81400
O1718       O  0.82534401  0.02247016  0.11646720    -0.81300
O1719       O  0.72999559  0.43162903  0.17683876    -0.81400
O1720       O  0.79723424  0.04144667  0.15831494    -0.81300
O1721       O  0.82629830  0.47559544  0.11992815    -0.81300
O1722       O  0.68064111  0.02370625  0.14341152    -0.81400
C1723       C  0.68939738  0.04010170  0.16725120     1.08400
C1724       C  0.82612075  0.46540494  0.14836393     1.08200
C1725       C  0.69993594  0.44147767  0.17051119     1.08400
C1726       C  0.82453637  0.03798025  0.14230526     1.08300
O1727       O  0.77332913  0.06725551  0.10921636    -0.81300
O1728       O  0.73205133  0.42749898  0.11544633    -0.81400
O1729       O  0.69899562  0.02713708  0.07882015    -0.81300
O1730       O  0.79307781  0.45491284  0.07260516    -0.81300
O1731       O  0.77423151  0.42792755  0.11605588    -0.81400
O1732       O  0.72175339  0.06173579  0.11247479    -0.81300
O1733       O  0.79032268  0.03665988  0.06851736    -0.81300
O1734       O  0.70515713  0.45725239  0.08078094    -0.81400
Co1735     Co  0.75239210  0.03626389  0.13834289     1.51500
Co1736     Co  0.75096158  0.45985914  0.14630754     1.51700
Co1737     Co  0.69841470  0.99242726  0.11169251     1.51600
Co1738     Co  0.79000430  0.99639665  0.09516703     1.51500
O1739       O  0.74877924  0.99577074  0.11927537    -1.43300
C1740       C  0.78593421  0.06415037  0.08159619     1.08300
C1741       C  0.71345521  0.42981545  0.09098799     1.08400
C1742       C  0.70381427  0.05578320  0.08829877     1.08300
C1743       C  0.78919953  0.42877031  0.08848457     1.08300
O1744       O  0.68806354  0.02663421  0.35500496    -0.81300
O1745       O  0.82448754  0.47449065  0.37426376    -0.81300
O1746       O  0.78128196  0.03320733  0.33022861    -0.81400
O1747       O  0.71846984  0.46550518  0.32747327    -0.81300
O1748       O  0.81489671  0.03651321  0.37140838    -0.81400
O1749       O  0.67834333  0.47143169  0.36429842    -0.81300
O1750       O  0.79104161  0.46884709  0.33303357    -0.81300
O1751       O  0.71852668  0.06775693  0.33696854    -0.81400
C1752       C  0.69083263  0.05174639  0.33741683     1.08400
C1753       C  0.82029403  0.46838331  0.34502774     1.08200
C1754       C  0.81114826  0.03767500  0.34180170     1.08400
C1755       C  0.68729540  0.46415411  0.33618593     1.08300
O1756       O  0.70853080  0.46122259  0.42439186    -0.81300
O1757       O  0.77723911  0.03961267  0.42769748    -0.81400
O1758       O  0.71032650  0.05067071  0.39992202    -0.81300
O1759       O  0.78507903  0.43352032  0.39137310    -0.81300
O1760       O  0.78677892  0.46786323  0.43156792    -0.81400
O1761       O  0.66763581  0.01902467  0.41580004    -0.81300
O1762       O  0.71816487  0.43011886  0.38351334    -0.81300
O1763       O  0.76739898  0.06898290  0.38512474    -0.81400
Co1764     Co  0.70481391  0.99879743  0.39361791     1.51500
Co1765     Co  0.79738907  0.00388568  0.40153398     1.51700
Co1766     Co  0.74183492  0.03644473  0.36153624     1.51600
Co1767     Co  0.75354977  0.45241491  0.35894529     1.51500
O1768       O  0.75261379  0.99503374  0.37992752    -1.43300
C1769       C  0.70950658  0.43318901  0.41197526     1.08300
C1770       C  0.77493155  0.06722140  0.41415690     1.08400
C1771       C  0.68320925  0.04606946  0.41675192     1.08300
C1772       C  0.79123970  0.43983386  0.42040299     1.08300
O1773       O  0.53484825  0.18576830  0.21958541    -0.81300
O1774       O  0.95115072  0.17706533  0.28437917    -0.81300
O1775       O  0.98230641  0.14483730  0.18372530    -0.81400
O1776       O  0.52196070  0.14109833  0.32153528    -0.81300
O1777       O  0.95876213  0.18124505  0.21345933    -0.81400
O1778       O  0.52820338  0.18385793  0.29028242    -0.81300
O1779       O  0.95689849  0.13445098  0.31496241    -0.81300
O1780       O  0.52195897  0.14327835  0.18995206    -0.81400
C1781       C  0.53592110  0.17140579  0.19299186     1.08400
C1782       C  0.94957086  0.16365584  0.31185768     1.08200
C1783       C  0.96586592  0.17095491  0.18577039     1.08400
C1784       C  0.52777245  0.17077539  0.31783541     1.08300
O1785       O  0.56781895  0.12863114  0.28657542    -0.81300
O1786       O  0.93700552  0.11512489  0.21052954    -0.81400
O1787       O  0.53923329  0.08913762  0.21358732    -0.81300
O1788       O  0.96218073  0.07797390  0.27792790    -0.81300
O1789       O  0.92374181  0.11501614  0.27228495    -0.81400
O1790       O  0.57236699  0.13017098  0.22478966    -0.81300
O1791       O  0.53616025  0.08517642  0.28428974    -0.81300
O1792       O  0.97594035  0.08611128  0.18473717    -0.81400
Co1793     Co  0.54623742  0.15702796  0.25527487     1.51500
Co1794     Co  0.94783262  0.14780106  0.24629766     1.51700
Co1795     Co  0.49437758  0.11097766  0.21747527     1.51600
Co1796     Co  0.99489743  0.11012243  0.29635536     1.51500
O1797       O  0.99867793  0.13500801  0.25489222    -1.43300
C1798       C  0.56501996  0.09865761  0.28798703     1.08300
C1799       C  0.94509083  0.09397077  0.18943131     1.08400
C1800       C  0.56855797  0.10205155  0.21459317     1.08300
C1801       C  0.93101334  0.08622749  0.27737473     1.08300
O1802       O  0.53635478  0.36195376  0.18826883    -0.81300
O1803       O  0.96124735  0.36332687  0.31455909    -0.81300
O1804       O  0.54063848  0.32070842  0.29287945    -0.81400
O1805       O  0.96088774  0.32968723  0.21087840    -0.81300
O1806       O  0.52628349  0.36268687  0.32036547    -0.81400
O1807       O  0.97206055  0.37132829  0.18089281    -0.81300
O1808       O  0.95482524  0.32521640  0.27886629    -0.81300
O1809       O  0.54628920  0.32053496  0.21899187    -0.81400
C1810       C  0.54866593  0.33443859  0.19213706     1.08400
C1811       C  0.95369210  0.33471260  0.30747266     1.08200
C1812       C  0.53883356  0.33520390  0.31923779     1.08400
C1813       C  0.96223453  0.34270637  0.18365894     1.08300
O1814       O  0.97341928  0.42875289  0.21703090    -0.81300
O1815       O  0.53751956  0.41977551  0.28693120    -0.81400
O1816       O  0.57494039  0.37352567  0.23377672    -0.81300
O1817       O  0.92525544  0.38685360  0.27676088    -0.81300
O1818       O  0.96448119  0.42422698  0.28168052    -0.81400
O1819       O  0.54587834  0.41743319  0.22357585    -0.81300
O1820       O  0.93144556  0.39324493  0.21605459    -0.81300
O1821       O  0.56966731  0.37714324  0.28090078    -0.81400
Co1822     Co  0.50604758  0.39454073  0.20692236     1.51500
Co1823     Co  0.49702559  0.39241793  0.29633982     1.51700
Co1824     Co  0.53807317  0.34946739  0.25542910     1.51600
Co1825     Co  0.94670315  0.35820568  0.24583540     1.51500
O1826       O  0.49571841  0.37349047  0.25090674    -1.43300
C1827       C  0.94270519  0.42154785  0.21115683     1.08300
C1828       C  0.56645598  0.40634634  0.28888180     1.08400
C1829       C  0.57374330  0.40212845  0.22374170     1.08300
C1830       C  0.93381096  0.41514381  0.28332188     1.08300
C1831       C  0.88207922  0.46215324  0.33975502    -0.10300
C1832       C  0.84987372  0.45946350  0.32589287     0.05900
C1833       C  0.84695677  0.44591249  0.29551087    -0.04100
C1834       C  0.87548653  0.43309980  0.28130137    -0.08600
C1835       C  0.90730059  0.43529357  0.29565269     0.05000
C1836       C  0.91086027  0.45104044  0.32454303    -0.03600
Br1837     Br  0.95325169  0.45434929  0.34634788    -0.06900
H1838       H  0.88492775  0.47149723  0.36333221     0.08900
H1839       H  0.87277692  0.42066518  0.25903627     0.06900
Br1840     Br  0.80533002  0.44145242  0.27248838    -0.03700
C1841       C  0.62559710  0.40415012  0.30718998    -0.10300
C1842       C  0.59810703  0.42321004  0.29809374     0.05900
C1843       C  0.60299383  0.45648156  0.29643989    -0.04100
C1844       C  0.63411193  0.46982345  0.30578445    -0.08600
C1845       C  0.66084796  0.45054328  0.31594846     0.05000
C1846       C  0.65673504  0.41738542  0.31523392    -0.03600
Br1847     Br  0.69206064  0.38880240  0.32705963    -0.03300
H1848       H  0.62301253  0.37846197  0.30825264     0.08900
H1849       H  0.63719474  0.49534543  0.30591590     0.06900
Br1850     Br  0.56868158  0.48470918  0.28167201    -0.03700
C1851       C  0.84070174  0.05527329  0.29156599    -0.10300
C1852       C  0.84286085  0.04464703  0.32283328     0.05900
C1853       C  0.87597504  0.04348300  0.33663232    -0.04100
C1854       C  0.90498040  0.05194380  0.31891642    -0.08600
C1855       C  0.90238010  0.06540007  0.28879474     0.05000
C1856       C  0.86949380  0.06717689  0.27544987    -0.03600
Br1857     Br  0.86073674  0.09003103  0.23757661    -0.03300
H1858       H  0.81605933  0.05732444  0.28067261     0.08900
H1859       H  0.92942005  0.05191900  0.33043355     0.06900
Br1860     Br  0.88505480  0.03542826  0.38076851    -0.03700
C1861       C  0.62802046  0.05040809  0.33375787    -0.10300
C1862       C  0.65926021  0.06177749  0.32113786     0.05900
C1863       C  0.65851959  0.08245651  0.29486896    -0.04100
C1864       C  0.62722354  0.09225538  0.28292165    -0.08600
C1865       C  0.59619649  0.08133755  0.29610384     0.05000
C1866       C  0.59688331  0.05977067  0.32147439    -0.03600
Br1867     Br  0.55626122  0.04559384  0.34285519    -0.03300
H1868       H  0.62755404  0.03458824  0.35408289     0.08900
H1869       H  0.62714349  0.10979478  0.26408635     0.06900
Br1870     Br  0.69893849  0.09838323  0.27458701    -0.03700
C1871       C  0.86605679  0.46910703  0.19387990    -0.10300
C1872       C  0.85952779  0.45882479  0.16290757     0.05900
C1873       C  0.88693159  0.44592679  0.14523073    -0.04100
C1874       C  0.91590918  0.43588494  0.16103555    -0.08600
C1875       C  0.92071174  0.44305343  0.19297368     0.05000
C1876       C  0.89761738  0.46344556  0.20783917    -0.03600
Br1877     Br  0.91181454  0.49009342  0.24186353    -0.03300
H1878       H  0.84762400  0.48349666  0.20623658     0.08900
H1879       H  0.93452851  0.42184533  0.14847931     0.06900
Br1880     Br  0.88751730  0.44155555  0.09984831    -0.03700
C1881       C  0.63809945  0.44367488  0.17413575    -0.10300
C1882       C  0.66862826  0.43169603  0.18682117     0.05900
C1883       C  0.66727061  0.41183526  0.21352067    -0.04100
C1884       C  0.63576499  0.40432926  0.22666948    -0.08600
C1885       C  0.60560605  0.41623415  0.21357638     0.05000
C1886       C  0.60692750  0.43587457  0.18691627    -0.03600
Br1887     Br  0.56757725  0.44846978  0.16345839    -0.03300
H1888       H  0.63782239  0.45848952  0.15307870     0.08900
H1889       H  0.63478349  0.38763809  0.24624174     0.06900
Br1890     Br  0.70647971  0.39288585  0.23208004    -0.03700
C1891       C  0.88829684  0.09953098  0.16715992    -0.10300
C1892       C  0.91739064  0.08079484  0.17062304     0.05900
C1893       C  0.91681302  0.04907047  0.16031894    -0.04100
C1894       C  0.88629487  0.03588386  0.15024859    -0.08600
C1895       C  0.85608040  0.05313378  0.15214038     0.05000
C1896       C  0.85743291  0.08573761  0.15903754    -0.03600
Br1897     Br  0.81822259  0.11250658  0.15820125    -0.03300
H1898       H  0.88883215  0.12451117  0.17345663     0.08900
H1899       H  0.88614673  0.01188031  0.14146971     0.06900
Br1900     Br  0.95570970  0.02200490  0.16110858    -0.03700
C1901       C  0.63132522  0.03765207  0.18972554    -0.10300
C1902       C  0.66133051  0.05547890  0.18490673     0.05900
C1903       C  0.66056076  0.08851228  0.19031159    -0.04100
C1904       C  0.63005505  0.10295634  0.19923396    -0.08600
C1905       C  0.59973931  0.08515790  0.20366872     0.05000
C1906       C  0.60092784  0.05194129  0.19905285    -0.03600
Br1907     Br  0.56227179  0.02439943  0.20457539    -0.03300
H1908       H  0.63127294  0.01230931  0.18519501     0.08900
H1909       H  0.63016840  0.12850359  0.20257253     0.06900
Br1910     Br  0.69962372  0.11549782  0.18418209    -0.03700
C1911       C  0.84273785  0.35630035  0.07296154    -0.10300
C1912       C  0.82546388  0.34162996  0.04805950     0.05900
C1913       C  0.79222539  0.35144372  0.04202098    -0.04100
C1914       C  0.78190989  0.38155575  0.05263423    -0.08600
C1915       C  0.80091433  0.39798732  0.07540260     0.05000
C1916       C  0.82802085  0.38155840  0.08922029    -0.03600
Br1917     Br  0.83739253  0.38432543  0.13356452    -0.03300
H1918       H  0.86545260  0.34573784  0.08224789     0.08900
H1919       H  0.75780510  0.39062664  0.04545622     0.06900
Br1920     Br  0.75880392  0.32158958  0.02722399    -0.03700
C1921       C  0.84489166  0.13212566  0.06686293    -0.10300
C1922       C  0.82256431  0.15735934  0.06093513     0.05900
C1923       C  0.78761271  0.15164084  0.06378780    -0.04100
C1924       C  0.77586934  0.12019070  0.06709677    -0.08600
C1925       C  0.79838230  0.09429790  0.06806351     0.05000
C1926       C  0.83327915  0.10083386  0.06882996    -0.03600
Br1927     Br  0.86673462  0.06817153  0.07140136    -0.03300
H1928       H  0.87205156  0.13623079  0.06690606     0.08900
H1929       H  0.74910159  0.11597156  0.06992914     0.06900
Br1930     Br  0.75554337  0.18560098  0.06588039    -0.03700
C1931       C  0.83970242  0.40363922  0.42767349    -0.10300
C1932       C  0.80804513  0.41402111  0.43858140     0.05900
C1933       C  0.78981740  0.39393283  0.45932797    -0.04100
C1934       C  0.80052235  0.36239406  0.46430248    -0.08600
C1935       C  0.83218950  0.35172259  0.45382610     0.05000
C1936       C  0.85260438  0.37385747  0.43655481    -0.03600
Br1937     Br  0.89784204  0.36508269  0.42306760    -0.03300
H1938       H  0.85436236  0.41871309  0.41161197     0.08900
H1939       H  0.78398663  0.34606349  0.47671442     0.06900
Br1940     Br  0.75175944  0.40969708  0.48236711    -0.03700
C1941       C  0.78837318  0.15643789  0.42962995    -0.10300
C1942       C  0.81281021  0.15564031  0.45351643     0.05900
C1943       C  0.82190892  0.12522225  0.46576579    -0.04100
C1944       C  0.80670162  0.09727741  0.45476798    -0.08600
C1945       C  0.78379127  0.09787421  0.42996747     0.05000
C1946       C  0.77414467  0.12814414  0.41756957    -0.03600
Br1947     Br  0.74135899  0.13325698  0.38445131    -0.03300
H1948       H  0.78110766  0.17907950  0.41946861     0.08900
H1949       H  0.81501346  0.07458568  0.46406550     0.06900
Br1950     Br  0.85778253  0.11807074  0.49488302    -0.03700
C1951       C  0.89361805  0.29387884  0.36483055    -0.10300
C1952       C  0.91321214  0.29442476  0.39269259     0.05900
C1953       C  0.94767941  0.30338373  0.39013729    -0.04100
C1954       C  0.96090730  0.31293205  0.36088213    -0.08600
C1955       C  0.94100251  0.31455202  0.33376072     0.05000
C1956       C  0.90721634  0.30395187  0.33559646    -0.03600
Br1957     Br  0.87816418  0.30513334  0.29951158    -0.03300
H1958       H  0.86726461  0.28651810  0.36584686     0.08900
H1959       H  0.98690178  0.31994081  0.35928755     0.06900
Br1960     Br  0.97897833  0.30037021  0.42462156    -0.03700
C1961       C  0.91739209  0.31015976  0.15852257    -0.10300
C1962       C  0.94801504  0.32704045  0.15543188     0.05900
C1963       C  0.96079609  0.33339977  0.12463787    -0.04100
C1964       C  0.94549975  0.31972910  0.09839737    -0.08600
C1965       C  0.91489488  0.30281715  0.10129055     0.05000
C1966       C  0.89974461  0.29983455  0.13180883    -0.03600
Br1967     Br  0.85403449  0.28497204  0.13919377    -0.03300
H1968       H  0.90568973  0.30731984  0.18167342     0.08900
H1969       H  0.95679644  0.32400155  0.07528300     0.06900
Br1970     Br  0.99597813  0.36367926  0.11539799    -0.03700
C1971       C  0.94248999  0.22051271  0.38237129    -0.10300
C1972       C  0.92786295  0.20042259  0.40563716     0.05900
C1973       C  0.91994890  0.16904720  0.39684397    -0.04100
C1974       C  0.92444855  0.15909798  0.36561811    -0.08600
C1975       C  0.93842708  0.17930004  0.34194497     0.05000
C1976       C  0.94767433  0.21046581  0.35080185    -0.03600
Br1977     Br  0.97046971  0.23877179  0.32181371    -0.03300
H1978       H  0.95082230  0.24375206  0.38904092     0.08900
H1979       H  0.91798652  0.13461606  0.36013055     0.06900
Br1980     Br  0.90467262  0.13780817  0.42684434    -0.03700
C1981       C  0.92266475  0.22164054  0.12248824    -0.10300
C1982       C  0.93691673  0.21045460  0.09374199     0.05900
C1983       C  0.96344823  0.18843019  0.09630308    -0.04100
C1984       C  0.97324916  0.17712013  0.12644066    -0.08600
C1985       C  0.95796572  0.18778900  0.15504395     0.05000
C1986       C  0.93278024  0.21099329  0.15246271    -0.03600
Br1987     Br  0.90837804  0.22679197  0.18850657    -0.03300
H1988       H  0.90148906  0.23747489  0.12183893     0.08900
H1989       H  0.99249518  0.15897510  0.12728217     0.06900
Br1990     Br  0.98520414  0.17072641  0.05981586    -0.03700
C1991       C  0.66795650  0.40117958  0.44421483    -0.10300
C1992       C  0.69861636  0.40265824  0.42769401     0.05900
C1993       C  0.71517701  0.37317321  0.42116026    -0.04100
C1994       C  0.70358059  0.34445341  0.43464608    -0.08600
C1995       C  0.67314534  0.34290755  0.45142696     0.05000
C1996       C  0.65404731  0.37183282  0.45412830    -0.03600
Br1997     Br  0.60731497  0.37428091  0.46791979    -0.03300
H1998       H  0.65331107  0.42268116  0.44705649     0.08900
H1999       H  0.71765144  0.32284335  0.43052114     0.06900
Br2000     Br  0.75251393  0.36848057  0.39227208    -0.03700
C2001       C  0.69662959  0.09438561  0.44867041    -0.10300
C2002       C  0.67161487  0.07475183  0.43475977     0.05900
C2003       C  0.63884561  0.08724663  0.43189896    -0.04100
C2004       C  0.63278152  0.11933461  0.43960858    -0.08600
C2005       C  0.65865752  0.13974335  0.45118947     0.05000
C2006       C  0.69039709  0.12623303  0.45710423    -0.03600
Br2007     Br  0.72415244  0.14898771  0.48046554    -0.03300
H2008       H  0.72138000  0.08471746  0.45307715     0.08900
H2009       H  0.60733864  0.12835448  0.43684983     0.06900
Br2010     Br  0.60157226  0.06161272  0.41787797    -0.03700
C2011       C  0.67380733  0.36739684  0.03650703    -0.10300
C2012       C  0.68108546  0.33861468  0.05246578     0.05900
C2013       C  0.69843074  0.34057501  0.08126304    -0.04100
C2014       C  0.70917975  0.37033800  0.09250975    -0.08600
C2015       C  0.70213038  0.39918245  0.07627631     0.05000
C2016       C  0.68347355  0.39728003  0.04810764    -0.03600
Br2017     Br  0.66845705  0.43405716  0.02507147    -0.03300
H2018       H  0.65890665  0.36683692  0.01538836     0.08900
H2019       H  0.72245199  0.37075864  0.11482270     0.06900
Br2020     Br  0.70536705  0.30404182  0.10777100    -0.03700
C2021       C  0.66285375  0.11583541  0.03248641    -0.10300
C2022       C  0.66698876  0.14381497  0.05052400     0.05900
C2023       C  0.67772085  0.14114313  0.08180500    -0.04100
C2024       C  0.68748488  0.11179497  0.09326313    -0.08600
C2025       C  0.68783198  0.08428334  0.07416124     0.05000
C2026       C  0.67376618  0.08615754  0.04376182    -0.03600
Br2027     Br  0.66791622  0.04960718  0.01729421    -0.03300
H2028       H  0.65064625  0.11693447  0.00979291     0.08900
H2029       H  0.69553205  0.11089467  0.11756640     0.06900
Br2030     Br  0.67523770  0.17559633  0.11152272    -0.03700
C2031       C  0.55757501  0.32289291  0.40703770    -0.10300
C2032       C  0.58127506  0.29868532  0.40610868     0.05900
C2033       C  0.59527930  0.29046583  0.37590223    -0.04100
C2034       C  0.57941110  0.30048178  0.34810760    -0.08600
C2035       C  0.55364464  0.32299976  0.34921560     0.05000
C2036       C  0.54551182  0.33659365  0.37924681    -0.03600
Br2037     Br  0.51889969  0.37434019  0.38563252    -0.03300
H2038       H  0.54936967  0.33227733  0.42962624     0.08900
H2039       H  0.58923411  0.29275459  0.32541607     0.06900
Br2040     Br  0.63943370  0.27210974  0.36946063    -0.03700
C2041       C  0.56927220  0.34140449  0.13686075    -0.10300
C2042       C  0.56700690  0.32165850  0.16406286     0.05900
C2043       C  0.58252266  0.29178267  0.16259625    -0.04100
C2044       C  0.59199839  0.27984453  0.13289221    -0.08600
C2045       C  0.58620218  0.29728415  0.10462927     0.05000
C2046       C  0.57797215  0.32940402  0.10729507    -0.03600
Br2047     Br  0.58176260  0.35865760  0.07227658    -0.03300
H2048       H  0.56338514  0.36646975  0.13819199     0.08900
H2049       H  0.60373090  0.25667126  0.13191205     0.06900
Br2050     Br  0.59439513  0.26804358  0.19984777    -0.03700
C2051       C  0.51995091  0.18327376  0.37468458    -0.10300
C2052       C  0.53880482  0.18762548  0.34648490     0.05900
C2053       C  0.57201679  0.19940088  0.34847396    -0.04100
C2054       C  0.58551328  0.20636304  0.37803975    -0.08600
C2055       C  0.56620597  0.20366390  0.40631777     0.05000
C2056       C  0.53269278  0.19225207  0.40420906    -0.03600
Br2057     Br  0.50394818  0.18583077  0.44054545    -0.03300
H2058       H  0.49580571  0.17109746  0.37406576     0.08900
H2059       H  0.61210987  0.21237619  0.37879812     0.06900
Br2060     Br  0.60198779  0.20134832  0.31238036    -0.03700
C2061       C  0.56647757  0.16307202  0.14364450    -0.10300
C2062       C  0.54974943  0.18501920  0.16311087     0.05900
C2063       C  0.53978725  0.21434004  0.14981903    -0.04100
C2064       C  0.54737316  0.22105001  0.11768404    -0.08600
C2065       C  0.56439765  0.19881386  0.09858586     0.05000
C2066       C  0.57262341  0.16923335  0.11176908    -0.03600
Br2067     Br  0.58974182  0.13512625  0.08668488    -0.03300
H2068       H  0.57302963  0.13981407  0.15288210     0.08900
H2069       H  0.54023594  0.24375140  0.10766063     0.06900
Br2070     Br  0.51358444  0.24444153  0.17346170    -0.03700
O2071       O  0.56817634  0.20502017  0.54166230    -0.81300
O2072       O  0.57912756  0.29018731  0.96371882    -0.81300
O2073       O  0.62298766  0.26666689  0.57534827    -0.81400
O2074       O  0.61377889  0.22196739  0.93393733    -0.81300
O2075       O  0.58099979  0.28928449  0.54751920    -0.81400
O2076       O  0.56942556  0.20735511  0.96404781    -0.81300
O2077       O  0.61979205  0.26789217  0.93389997    -0.81300
O2078       O  0.61207213  0.21941991  0.57213832    -0.81400
C2079       C  0.58171066  0.20884797  0.56895724     1.08400
C2080       C  0.59347883  0.28489849  0.93643475     1.08200
C2081       C  0.59652541  0.28364758  0.57396456     1.08400
C2082       C  0.58340465  0.21135836  0.93667626     1.08300
O2083       O  0.62016539  0.17242345  0.97739124    -0.81300
O2084       O  0.63640067  0.31301303  0.52703700    -0.81400
O2085       O  0.67006376  0.20051382  0.54393747    -0.81300
O2086       O  0.67376933  0.28388095  0.95879141    -0.81300
O2087       O  0.63383799  0.31401890  0.98141316    -0.81400
O2088       O  0.62474659  0.17328353  0.52608272    -0.81300
O2089       O  0.66704243  0.19788070  0.95917318    -0.81300
O2090       O  0.67617317  0.28039633  0.54570844    -0.81400
Co2091     Co  0.59786161  0.20573924  0.50306881     1.51500
Co2092     Co  0.60462706  0.28423110  0.00493520     1.51700
Co2093     Co  0.64546074  0.24138786  0.54281007     1.51600
Co2094     Co  0.64602947  0.24224039  0.96374495     1.51500
O2095       O  0.62385803  0.24359519  0.50346969    -1.43300
C2096       C  0.64882972  0.17203626  0.96306314     1.08300
C2097       C  0.66449641  0.30870970  0.54101827     1.08400
C2098       C  0.65387932  0.17427780  0.53902394     1.08300
C2099       C  0.66037640  0.31159092  0.96454356     1.08300
O2100       O  0.88775071  0.22701647  0.56789078    -0.81300
O2101       O  0.86922662  0.26996180  0.92268334    -0.81300
O2102       O  0.92596343  0.21331121  0.96221876    -0.81400
O2103       O  0.91455592  0.29340903  0.54537083    -0.81300
O2104       O  0.88154936  0.22356571  0.93155786    -0.81400
O2105       O  0.87256577  0.27316084  0.57439237    -0.81300
O2106       O  0.91231491  0.28951130  0.94975759    -0.81300
O2107       O  0.92986647  0.21509280  0.53492662    -0.81400
C2108       C  0.91818882  0.21816986  0.56347403     1.08400
C2109       C  0.89737371  0.28450881  0.92336900     1.08200
C2110       C  0.91191044  0.21387947  0.93480019     1.08400
C2111       C  0.89961612  0.28939412  0.57217473     1.08300
O2112       O  0.82687839  0.28621186  0.53879281    -0.81300
O2113       O  0.81813662  0.21328482  0.96083558    -0.81400
O2114       O  0.86692675  0.18329239  0.53428993    -0.81300
O2115       O  0.87246227  0.32053175  0.98219700    -0.81300
O2116       O  0.83024004  0.29331134  0.95795018    -0.81400
O2117       O  0.82235630  0.21284092  0.54510921    -0.81300
O2118       O  0.86924517  0.31648460  0.51768122    -0.81300
O2119       O  0.86215124  0.18220513  0.97113833    -0.81400
Co2120     Co  0.85452777  0.24805783  0.53944334     1.51500
Co2121     Co  0.85148530  0.24914248  0.96060739     1.51700
Co2122     Co  0.89641155  0.20256002  0.50026637     1.51600
Co2123     Co  0.90716720  0.28746251  0.99807163     1.51500
O2124       O  0.87763921  0.24765208  0.49936087    -1.43300
C2125       C  0.84069916  0.31322409  0.53357377     1.08300
C2126       C  0.83127693  0.18551211  0.96294886     1.08400
C2127       C  0.83730795  0.18630517  0.54608251     1.08300
C2128       C  0.84562001  0.31987587  0.96429805     1.08300
O2129       O  0.72052243  0.04443575  0.67367700    -0.81300
O2130       O  0.79838322  0.46186004  0.66421399    -0.81300
O2131       O  0.69543171  0.46149415  0.64794736    -0.81400
O2132       O  0.82534374  0.02246992  0.61646681    -0.81300
O2133       O  0.72999567  0.43162931  0.67683934    -0.81400
O2134       O  0.79723442  0.04144603  0.65831503    -0.81300
O2135       O  0.82629875  0.47559531  0.61992884    -0.81300
O2136       O  0.68064106  0.02370527  0.64341263    -0.81400
C2137       C  0.68939743  0.04010045  0.66725244     1.08400
C2138       C  0.82612107  0.46540468  0.64836456     1.08200
C2139       C  0.69993602  0.44147788  0.67051163     1.08400
C2140       C  0.82453639  0.03797980  0.64230503     1.08300
O2141       O  0.77332832  0.06725524  0.60921689    -0.81300
O2142       O  0.73205195  0.42749891  0.61544702    -0.81400
O2143       O  0.69899507  0.02713708  0.57882124    -0.81300
O2144       O  0.79307845  0.45491290  0.57260583    -0.81300
O2145       O  0.77423174  0.42792770  0.61605648    -0.81400
O2146       O  0.72175269  0.06173554  0.61247625    -0.81300
O2147       O  0.79032134  0.03665980  0.56851754    -0.81300
O2148       O  0.70515779  0.45725222  0.58078146    -0.81400
Co2149     Co  0.75239193  0.03626331  0.63834356     1.51500
Co2150     Co  0.75096175  0.45985940  0.64630819     1.51700
Co2151     Co  0.69841448  0.99242683  0.61169310     1.51600
Co2152     Co  0.79000378  0.99639636  0.59516697     1.51500
O2153       O  0.74877901  0.99577028  0.61927569    -1.43300
C2154       C  0.78593286  0.06415025  0.58159649     1.08300
C2155       C  0.71345577  0.42981529  0.59098869     1.08400
C2156       C  0.70381354  0.05578311  0.58830019     1.08300
C2157       C  0.78920000  0.42877042  0.58848524     1.08300
O2158       O  0.68806401  0.02663428  0.85500488    -0.81300
O2159       O  0.82448754  0.47449130  0.87426332    -0.81300
O2160       O  0.78128274  0.03320696  0.83022949    -0.81400
O2161       O  0.71846972  0.46550522  0.82747325    -0.81300
O2162       O  0.81489732  0.03651218  0.87140951    -0.81400
O2163       O  0.67834331  0.47143155  0.86429852    -0.81300
O2164       O  0.79104153  0.46884742  0.83303320    -0.81300
O2165       O  0.71852741  0.06775687  0.83696864    -0.81400
C2166       C  0.69083328  0.05174642  0.83741675     1.08400
C2167       C  0.82029398  0.46838379  0.84502735     1.08200
C2168       C  0.81114899  0.03767437  0.84180281     1.08400
C2169       C  0.68729532  0.46415401  0.83618601     1.08300
O2170       O  0.70853098  0.46122286  0.92439187    -0.81300
O2171       O  0.77723908  0.03961225  0.92769825    -0.81400
O2172       O  0.71032662  0.05067078  0.89992213    -0.81300
O2173       O  0.78507928  0.43352085  0.89137246    -0.81300
O2174       O  0.78677911  0.46786371  0.93156737    -0.81400
O2175       O  0.66763552  0.01902498  0.91579965    -0.81300
O2176       O  0.71816521  0.43011894  0.88351348    -0.81300
O2177       O  0.76739962  0.06898251  0.88512538    -0.81400
Co2178     Co  0.70481372  0.99879748  0.89361795     1.51500
Co2179     Co  0.79738881  0.00388487  0.90153501     1.51700
Co2180     Co  0.74183537  0.03644460  0.86153667     1.51600
Co2181     Co  0.75354980  0.45241513  0.85894505     1.51500
O2182       O  0.75261368  0.99503350  0.87992801    -1.43300
C2183       C  0.70950690  0.43318922  0.91197541     1.08300
C2184       C  0.77493193  0.06722100  0.91415760     1.08400
C2185       C  0.68320910  0.04606969  0.91675168     1.08300
C2186       C  0.79124057  0.43983446  0.92040218     1.08300
O2187       O  0.53484838  0.18576761  0.71958525    -0.81300
O2188       O  0.95115092  0.17706505  0.78437904    -0.81300
O2189       O  0.98230643  0.14483664  0.68372525    -0.81400
O2190       O  0.52196108  0.14109837  0.82153511    -0.81300
O2191       O  0.95876212  0.18124440  0.71345925    -0.81400
O2192       O  0.52820375  0.18385774  0.79028195    -0.81300
O2193       O  0.95689911  0.13445098  0.81496261    -0.81300
O2194       O  0.52195911  0.14327754  0.68995209    -0.81400
C2195       C  0.53592128  0.17140496  0.69299181     1.08400
C2196       C  0.94957116  0.16365574  0.81185764     1.08200
C2197       C  0.96586586  0.17095422  0.68577032     1.08400
C2198       C  0.52777289  0.17077539  0.81783500     1.08300
O2199       O  0.56781923  0.12863087  0.78657536    -0.81300
O2200       O  0.93700578  0.11512413  0.71052983    -0.81400
O2201       O  0.53923320  0.08913681  0.71358778    -0.81300
O2202       O  0.96218130  0.07797364  0.77792851    -0.81300
O2203       O  0.92374224  0.11501570  0.77228538    -0.81400
O2204       O  0.57236703  0.13017021  0.72478961    -0.81300
O2205       O  0.53616048  0.08517617  0.78428999    -0.81300
O2206       O  0.97594057  0.08611054  0.68473742    -0.81400
Co2207     Co  0.54623765  0.15702748  0.75527470     1.51500
Co2208     Co  0.94783283  0.14780053  0.74629776     1.51700
Co2209     Co  0.49437763  0.11097715  0.71747549     1.51600
Co2210     Co  0.99489797  0.11012240  0.79635552     1.51500
O2211       O  0.99867823  0.13500773  0.75489221    -1.43300
C2212       C  0.56502025  0.09865736  0.78798709     1.08300
C2213       C  0.94509103  0.09396995  0.68943163     1.08400
C2214       C  0.56855791  0.10205068  0.71459342     1.08300
C2215       C  0.93101390  0.08622713  0.77737548     1.08300
O2216       O  0.53635437  0.36195448  0.68826886    -0.81300
O2217       O  0.96124745  0.36332685  0.81455916    -0.81300
O2218       O  0.54063803  0.32070855  0.79287948    -0.81400
O2219       O  0.96088768  0.32968734  0.71087846    -0.81300
O2220       O  0.52628326  0.36268699  0.82036560    -0.81400
O2221       O  0.97206045  0.37132838  0.68089287    -0.81300
O2222       O  0.95482530  0.32521644  0.77886628    -0.81300
O2223       O  0.54628861  0.32053548  0.71899170    -0.81400
C2224       C  0.54866538  0.33443925  0.69213695     1.08400
C2225       C  0.95369220  0.33471259  0.80747266     1.08200
C2226       C  0.53883316  0.33520398  0.81923785     1.08400
C2227       C  0.96223438  0.34270648  0.68365900     1.08300
O2228       O  0.97341959  0.42875293  0.71703117    -0.81300
O2229       O  0.53751942  0.41977566  0.78693156    -0.81400
O2230       O  0.57494014  0.37352587  0.73377689    -0.81300
O2231       O  0.92525547  0.38685359  0.77676106    -0.81300
O2232       O  0.96448117  0.42422702  0.78168060    -0.81400
O2233       O  0.54587827  0.41743357  0.72357619    -0.81300
O2234       O  0.93144571  0.39324514  0.71605483    -0.81300
O2235       O  0.56966707  0.37714333  0.78090094    -0.81400
Co2236     Co  0.50604729  0.39454134  0.70692272     1.51500
Co2237     Co  0.49702543  0.39241815  0.79634016     1.51700
Co2238     Co  0.53807282  0.34946765  0.75542920     1.51600
Co2239     Co  0.94670319  0.35820577  0.74583550     1.51500
O2240       O  0.49571817  0.37349088  0.75090703    -1.43300
C2241       C  0.94270546  0.42154805  0.71115719     1.08300
C2242       C  0.56645581  0.40634641  0.78888207     1.08400
C2243       C  0.57374317  0.40212870  0.72374196     1.08300
C2244       C  0.93381097  0.41514381  0.78332202     1.08300
C2245       C  0.88207913  0.46215333  0.83975495    -0.10300
C2246       C  0.84987370  0.45946379  0.82589261     0.05900
C2247       C  0.84695681  0.44591270  0.79551066    -0.04100
C2248       C  0.87548658  0.43309986  0.78130131    -0.08600
C2249       C  0.90730058  0.43529356  0.79565275     0.05000
C2250       C  0.91086020  0.45104038  0.82454311    -0.03600
Br2251     Br  0.95325150  0.45434892  0.84634823    -0.06900
H2252       H  0.88492760  0.47149724  0.86333217     0.08900
H2253       H  0.87277703  0.42066521  0.75903623     0.06900
Br2254     Br  0.80533014  0.44145272  0.77248804    -0.03700
C2255       C  0.62559684  0.40415002  0.80719043    -0.10300
C2256       C  0.59810689  0.42321000  0.79809401     0.05900
C2257       C  0.60299385  0.45648149  0.79643988    -0.04100
C2258       C  0.63411199  0.46982332  0.80578435    -0.08600
C2259       C  0.66084788  0.45054311  0.81594860     0.05000
C2260       C  0.65673482  0.41738526  0.81523432    -0.03600
Br2261     Br  0.69206031  0.38880221  0.82706029    -0.03300
H2262       H  0.62301212  0.37846189  0.80825326     0.08900
H2263       H  0.63719495  0.49534528  0.80591555     0.06900
Br2264     Br  0.56868178  0.48470912  0.78167167    -0.03700
C2265       C  0.84070254  0.05527259  0.79156715    -0.10300
C2266       C  0.84286164  0.04464665  0.82283454     0.05900
C2267       C  0.87597580  0.04348297  0.83663368    -0.04100
C2268       C  0.90498115  0.05194395  0.81891779    -0.08600
C2269       C  0.90238080  0.06539975  0.78879589     0.05000
C2270       C  0.86949454  0.06717612  0.77545092    -0.03600
Br2271     Br  0.86073748  0.09002936  0.73757715    -0.03300
H2272       H  0.81606015  0.05732339  0.78067365     0.08900
H2273       H  0.92942077  0.05191947  0.83043497     0.06900
Br2274     Br  0.88505548  0.03542816  0.88076987    -0.03700
C2275       C  0.62802110  0.05040792  0.83375765    -0.10300
C2276       C  0.65926083  0.06177751  0.82113773     0.05900
C2277       C  0.65852010  0.08245665  0.79486893    -0.04100
C2278       C  0.62722395  0.09225543  0.78292166    -0.08600
C2279       C  0.59619692  0.08133737  0.79610377     0.05000
C2280       C  0.59688389  0.05977036  0.82147419    -0.03600
Br2281     Br  0.55626189  0.04559321  0.84285493    -0.03300
H2282       H  0.62755471  0.03458798  0.85408261     0.08900
H2283       H  0.62714383  0.10979497  0.76408650     0.06900
Br2284     Br  0.69893895  0.09838364  0.77458714    -0.03700
C2285       C  0.86605698  0.46910690  0.69388056    -0.10300
C2286       C  0.85952807  0.45882463  0.66290822     0.05900
C2287       C  0.88693197  0.44592695  0.64523129    -0.04100
C2288       C  0.91590967  0.43588536  0.66103603    -0.08600
C2289       C  0.92071215  0.44305377  0.69297417     0.05000
C2290       C  0.89761764  0.46344568  0.70783975    -0.03600
Br2291     Br  0.91181474  0.49009374  0.74186400    -0.03300
H2292       H  0.84762409  0.48349639  0.70623726     0.08900
H2293       H  0.93452912  0.42184593  0.64847974     0.06900
Br2294     Br  0.88751772  0.44155580  0.59984886    -0.03700
C2295       C  0.63809950  0.44367495  0.67413600    -0.10300
C2296       C  0.66862829  0.43169618  0.68682153     0.05900
C2297       C  0.66727057  0.41183537  0.71352101    -0.04100
C2298       C  0.63576491  0.40432937  0.72666977    -0.08600
C2299       C  0.60560599  0.41623427  0.71357662     0.05000
C2300       C  0.60692752  0.43587460  0.68691645    -0.03600
Br2301     Br  0.56757732  0.44846956  0.66345837    -0.03300
H2302       H  0.63782249  0.45848954  0.65307893     0.08900
H2303       H  0.63478334  0.38763822  0.74624205     0.06900
Br2304     Br  0.70647961  0.39288588  0.73208041    -0.03700
C2305       C  0.88829694  0.09953018  0.66716042    -0.10300
C2306       C  0.91739076  0.08079402  0.67062338     0.05900
C2307       C  0.91681318  0.04906979  0.66031885    -0.04100
C2308       C  0.88629505  0.03588331  0.65024815    -0.08600
C2309       C  0.85608055  0.05313320  0.65214011     0.05000
C2310       C  0.85743305  0.08573691  0.65903779    -0.03600
Br2311     Br  0.81822273  0.11250588  0.65820176    -0.03300
H2312       H  0.88883220  0.12451029  0.67345741     0.08900
H2313       H  0.88614693  0.01187989  0.64146892     0.06900
Br2314     Br  0.95570988  0.02200423  0.66110831    -0.03700
C2315       C  0.63132514  0.03765086  0.68972654    -0.10300
C2316       C  0.66133058  0.05547759  0.68490804     0.05900
C2317       C  0.66056085  0.08851099  0.69031275    -0.04100
C2318       C  0.63005508  0.10295517  0.69923467    -0.08600
C2319       C  0.59973923  0.08515685  0.70366919     0.05000
C2320       C  0.60092766  0.05194022  0.69905339    -0.03600
Br2321     Br  0.56227130  0.02439859  0.70457513    -0.03300
H2322       H  0.63127281  0.01230810  0.68519598     0.08900
H2323       H  0.63016850  0.12850244  0.70257312     0.06900
Br2324     Br  0.69962397  0.11549641  0.68418362    -0.03700
C2325       C  0.84273841  0.35630060  0.57296193    -0.10300
C2326       C  0.82546437  0.34163026  0.54805988     0.05900
C2327       C  0.79222586  0.35144403  0.54202140    -0.04100
C2328       C  0.78191042  0.38155604  0.55263475    -0.08600
C2329       C  0.80091480  0.39798746  0.57540324     0.05000
C2330       C  0.82802140  0.38155856  0.58922081    -0.03600
Br2331     Br  0.83739316  0.38432544  0.63356504    -0.03300
H2332       H  0.86545317  0.34573806  0.58224824     0.08900
H2333       H  0.75780557  0.39062697  0.54545686     0.06900
Br2334     Br  0.75880446  0.32158985  0.52722517    -0.03700
C2335       C  0.84488985  0.13212570  0.56686268    -0.10300
C2336       C  0.82256255  0.15735935  0.56093473     0.05900
C2337       C  0.78761091  0.15164080  0.56378732    -0.04100
C2338       C  0.77586759  0.12019064  0.56709671    -0.08600
C2339       C  0.79838060  0.09429786  0.56806361     0.05000
C2340       C  0.83327741  0.10083390  0.56882981    -0.03600
Br2341     Br  0.86673297  0.06817167  0.57140103    -0.03300
H2342       H  0.87204977  0.13623083  0.56690586     0.08900
H2343       H  0.74909982  0.11597147  0.56992913     0.06900
Br2344     Br  0.75554151  0.18560094  0.56587916    -0.03700
C2345       C  0.83970422  0.40364056  0.92767045    -0.10300
C2346       C  0.80804637  0.41402164  0.93858070     0.05900
C2347       C  0.78981978  0.39393445  0.95932787    -0.04100
C2348       C  0.80051785  0.36238933  0.96430855    -0.08600
C2349       C  0.83219091  0.35172387  0.95382507     0.05000
C2350       C  0.85260462  0.37385763  0.93655324    -0.03600
Br2351     Br  0.89784254  0.36508237  0.92306506    -0.03300
H2352       H  0.85436227  0.41871234  0.91160983     0.08900
H2353       H  0.78400714  0.34608312  0.97670424     0.06900
Br2354     Br  0.75176125  0.40969886  0.98236698    -0.03700
C2355       C  0.78837377  0.15643752  0.92963055    -0.10300
C2356       C  0.81281095  0.15564003  0.95351691     0.05900
C2357       C  0.82190977  0.12522198  0.96576622    -0.04100
C2358       C  0.80670238  0.09727708  0.95476853    -0.08600
C2359       C  0.78379182  0.09787382  0.92996818     0.05000
C2360       C  0.77414521  0.12814374  0.91757027    -0.03600
Br2361     Br  0.74135948  0.13325654  0.88445205    -0.03300
H2362       H  0.78110817  0.17907911  0.91946920     0.08900
H2363       H  0.81501430  0.07458537  0.96406602     0.06900
Br2364     Br  0.85778368  0.11807056  0.99488317    -0.03700
C2365       C  0.89361823  0.29387862  0.86483040    -0.10300
C2366       C  0.91321235  0.29442450  0.89269241     0.05900
C2367       C  0.94767961  0.30338348  0.89013714    -0.04100
C2368       C  0.96090745  0.31293189  0.86088203    -0.08600
C2369       C  0.94100264  0.31455195  0.83376065     0.05000
C2370       C  0.90721649  0.30395175  0.83559634    -0.03600
Br2371     Br  0.87816431  0.30513331  0.79951148    -0.03300
H2372       H  0.86726479  0.28651788  0.86584672     0.08900
H2373       H  0.98690194  0.31994066  0.85928744     0.06900
Br2374     Br  0.97897852  0.30036973  0.92462140    -0.03700
C2375       C  0.91739192  0.31015970  0.65852276    -0.10300
C2376       C  0.94801482  0.32704049  0.65543198     0.05900
C2377       C  0.96079586  0.33339963  0.62463794    -0.04100
C2378       C  0.94549956  0.31972874  0.59839751    -0.08600
C2379       C  0.91489475  0.30281668  0.60129078     0.05000
C2380       C  0.89974451  0.29983422  0.63180908    -0.03600
Br2381     Br  0.85403443  0.28497162  0.63919412    -0.03300
H2382       H  0.90568958  0.30731988  0.68167362     0.08900
H2383       H  0.95679624  0.32400109  0.57528311     0.06900
Br2384     Br  0.99597791  0.36367908  0.61539795    -0.03700
C2385       C  0.94249017  0.22051278  0.88237106    -0.10300
C2386       C  0.92786310  0.20042262  0.90563693     0.05900
C2387       C  0.91994893  0.16904726  0.89684375    -0.04100
C2388       C  0.92444854  0.15909798  0.86561790    -0.08600
C2389       C  0.93842713  0.17930003  0.84194477     0.05000
C2390       C  0.94767439  0.21046580  0.85080160    -0.03600
Br2391     Br  0.97046973  0.23877174  0.82181339    -0.03300
H2392       H  0.95082255  0.24375182  0.88904064     0.08900
H2393       H  0.91798651  0.13461610  0.86013035     0.06900
Br2394     Br  0.90467274  0.13780821  0.92684413    -0.03700
C2395       C  0.92266440  0.22163987  0.62248836    -0.10300
C2396       C  0.93691605  0.21045377  0.59374204     0.05900
C2397       C  0.96344760  0.18842937  0.59630300    -0.04100
C2398       C  0.97324875  0.17711936  0.62644053    -0.08600
C2399       C  0.95796553  0.18778829  0.65504389     0.05000
C2400       C  0.93278016  0.21099271  0.65246278    -0.03600
Br2401     Br  0.90837864  0.22679191  0.68850679    -0.03300
H2402       H  0.90148880  0.23747434  0.62183915     0.08900
H2403       H  0.99249479  0.15897432  0.62728196     0.06900
Br2404     Br  0.98520339  0.17072567  0.55981567    -0.03700
C2405       C  0.66795650  0.40117976  0.94421462    -0.10300
C2406       C  0.69861672  0.40265851  0.92769436     0.05900
C2407       C  0.71517758  0.37317350  0.92116098    -0.04100
C2408       C  0.70358095  0.34445369  0.93464663    -0.08600
C2409       C  0.67314531  0.34290775  0.95142689     0.05000
C2410       C  0.65404716  0.37183297  0.95412785    -0.03600
Br2411     Br  0.60731455  0.37428088  0.96791851    -0.03300
H2412       H  0.65331091  0.42268130  0.94705593     0.08900
H2413       H  0.71765194  0.32284366  0.93052197     0.06900
Br2414     Br  0.75251476  0.36848082  0.89227315    -0.03700
C2415       C  0.69662928  0.09438594  0.94867003    -0.10300
C2416       C  0.67161462  0.07475213  0.93475936     0.05900
C2417       C  0.63884534  0.08724688  0.93189848    -0.04100
C2418       C  0.63278119  0.11933485  0.93960808    -0.08600
C2419       C  0.65865715  0.13974361  0.95118904     0.05000
C2420       C  0.69039672  0.12623334  0.95710384    -0.03600
Br2421     Br  0.72415204  0.14898809  0.98046512    -0.03300
H2422       H  0.72137972  0.08471785  0.95307678     0.08900
H2423       H  0.60733830  0.12835470  0.93684931     0.06900
Br2424     Br  0.60157203  0.06161290  0.91787751    -0.03700
C2425       C  0.67380790  0.36739663  0.53650775    -0.10300
C2426       C  0.68108576  0.33861449  0.55246663     0.05900
C2427       C  0.69843085  0.34057484  0.58126401    -0.04100
C2428       C  0.70917998  0.37033782  0.59251069    -0.08600
C2429       C  0.70213083  0.39918226  0.57627712     0.05000
C2430       C  0.68347413  0.39727981  0.54810838    -0.03600
Br2431     Br  0.66845782  0.43405691  0.52507206    -0.03300
H2432       H  0.65890750  0.36683670  0.51538892     0.08900
H2433       H  0.72245209  0.37075849  0.61482370     0.06900
Br2434     Br  0.70536695  0.30404167  0.60777208    -0.03700
C2435       C  0.66285450  0.11583568  0.53248746    -0.10300
C2436       C  0.66698904  0.14381511  0.55052528     0.05900
C2437       C  0.67772021  0.14114307  0.58180659    -0.04100
C2438       C  0.68748368  0.11179475  0.59326486    -0.08600
C2439       C  0.68783126  0.08428327  0.57416278     0.05000
C2440       C  0.67376647  0.08615773  0.54376299    -0.03600
Br2441     Br  0.66791739  0.04960760  0.51729491    -0.03300
H2442       H  0.65064769  0.11693489  0.50979365     0.08900
H2443       H  0.69553015  0.11089418  0.61756832     0.06900
Br2444     Br  0.67523675  0.17559625  0.61152430    -0.03700
C2445       C  0.55757438  0.32289295  0.90703775    -0.10300
C2446       C  0.58127447  0.29868540  0.90610874     0.05900
C2447       C  0.59527879  0.29046595  0.87590231    -0.04100
C2448       C  0.57941059  0.30048182  0.84810768    -0.08600
C2449       C  0.55364413  0.32299979  0.84921566     0.05000
C2450       C  0.54551129  0.33659372  0.87924686    -0.03600
Br2451     Br  0.51889932  0.37434037  0.88563257    -0.03300
H2452       H  0.54936901  0.33227736  0.92962629     0.08900
H2453       H  0.58923365  0.29275466  0.82541616     0.06900
Br2454     Br  0.63943333  0.27211014  0.86946075    -0.03700
C2455       C  0.56927138  0.34140508  0.63686047    -0.10300
C2456       C  0.56700624  0.32165917  0.66406267     0.05900
C2457       C  0.58252220  0.29178346  0.66259615    -0.04100
C2458       C  0.59199792  0.27984522  0.63289216    -0.08600
C2459       C  0.58620163  0.29728468  0.60462915     0.05000
C2460       C  0.57797142  0.32940453  0.60729482    -0.03600
Br2461     Br  0.58176193  0.35865804  0.57227626    -0.03300
H2462       H  0.56338427  0.36647033  0.63819167     0.08900
H2463       H  0.60373060  0.25667202  0.63191212     0.06900
Br2464     Br  0.59439524  0.26804477  0.69984775    -0.03700
C2465       C  0.51995134  0.18327424  0.87468388    -0.10300
C2466       C  0.53880538  0.18762564  0.84648426     0.05900
C2467       C  0.57201747  0.19940074  0.84847328    -0.04100
C2468       C  0.58551393  0.20636297  0.87803907    -0.08600
C2469       C  0.56620644  0.20366418  0.90631702     0.05000
C2470       C  0.53269317  0.19225263  0.90420829    -0.03600
Br2471     Br  0.50394837  0.18583171  0.94054460    -0.03300
H2472       H  0.49580608  0.17109806  0.87406508     0.08900
H2473       H  0.61211058  0.21237590  0.87879750     0.06900
Br2474     Br  0.60198857  0.20134762  0.81237972    -0.03700
C2475       C  0.56647748  0.16307108  0.64364436    -0.10300
C2476       C  0.54974962  0.18501830  0.66311089     0.05900
C2477       C  0.53978776  0.21433935  0.64981937    -0.04100
C2478       C  0.54737372  0.22104953  0.61768447    -0.08600
C2479       C  0.56439795  0.19881340  0.59858613     0.05000
C2480       C  0.57262339  0.16923265  0.61176901    -0.03600
Br2481     Br  0.58974139  0.13512561  0.58668448    -0.03300
H2482       H  0.57302928  0.13981299  0.65288177     0.08900
H2483       H  0.54023666  0.24375104  0.60766123     0.06900
Br2484     Br  0.51358517  0.24444081  0.67346227    -0.03700
O2485       O  0.56817598  0.70502064  0.04166206    -0.81300
O2486       O  0.57912775  0.79018710  0.46371886    -0.81300
O2487       O  0.62298757  0.76666697  0.07534785    -0.81400
O2488       O  0.61377900  0.72196702  0.43393759    -0.81300
O2489       O  0.58099971  0.78928461  0.04751878    -0.81400
O2490       O  0.56942581  0.70735462  0.46404817    -0.81300
O2491       O  0.61979217  0.76789185  0.43390002    -0.81300
O2492       O  0.61207192  0.71942010  0.07213801    -0.81400
C2493       C  0.58171035  0.70884840  0.06895699     1.08400
C2494       C  0.59347897  0.78489823  0.43643478     1.08200
C2495       C  0.59652535  0.78364771  0.07396414     1.08400
C2496       C  0.58340479  0.71135797  0.43667659     1.08300
O2497       O  0.62016571  0.67242306  0.47739151    -0.81300
O2498       O  0.63640052  0.81301313  0.02703657    -0.81400
O2499       O  0.67006337  0.70051367  0.04393698    -0.81300
O2500       O  0.67376982  0.78388034  0.45879133    -0.81300
O2501       O  0.63383861  0.81401837  0.48141312    -0.81400
O2502       O  0.62474598  0.67328354  0.02608244    -0.81300
O2503       O  0.66704265  0.69788035  0.45917327    -0.81300
O2504       O  0.67617301  0.78039644  0.04570805    -0.81400
Co2505     Co  0.59786128  0.70573942  0.00306854     1.51500
Co2506     Co  0.60462736  0.78423080  0.50493518     1.51700
Co2507     Co  0.64546060  0.74138789  0.04280970     1.51600
Co2508     Co  0.64602969  0.74224001  0.46374501     1.51500
O2509       O  0.62385789  0.74359524  0.00346937    -1.43300
C2510       C  0.64882997  0.67203590  0.46306333     1.08300
C2511       C  0.66449624  0.80870982  0.04101789     1.08400
C2512       C  0.65387878  0.67427770  0.03902351     1.08300
C2513       C  0.66037701  0.81159033  0.46454351     1.08300
O2514       O  0.88775076  0.72701600  0.06789078    -0.81300
O2515       O  0.86922686  0.76996209  0.42268342    -0.81300
O2516       O  0.92596322  0.71331104  0.46221851    -0.81400
O2517       O  0.91455612  0.79340875  0.04537092    -0.81300
O2518       O  0.88154921  0.72356584  0.43155765    -0.81400
O2519       O  0.87256607  0.77316045  0.07439251    -0.81300
O2520       O  0.91231533  0.78951118  0.44975771    -0.81300
O2521       O  0.92986656  0.71509268  0.03492656    -0.81400
C2522       C  0.91818890  0.71816951  0.06347398     1.08400
C2523       C  0.89737406  0.78450890  0.42336911     1.08200
C2524       C  0.91191023  0.71387942  0.43479995     1.08400
C2525       C  0.89961640  0.78939374  0.07217484     1.08300
O2526       O  0.82687867  0.78621179  0.03879334    -0.81300
O2527       O  0.81813642  0.71328524  0.46083532    -0.81400
O2528       O  0.86692667  0.68329225  0.03428952    -0.81300
O2529       O  0.87246270  0.82053180  0.48219710    -0.81300
O2530       O  0.83024037  0.79331162  0.45795018    -0.81400
O2531       O  0.82235632  0.71284087  0.04510902    -0.81300
O2532       O  0.86924531  0.81648458  0.01768155    -0.81300
O2533       O  0.86215084  0.68220532  0.47113809    -0.81400
Co2534     Co  0.85452793  0.74805767  0.03944344     1.51500
Co2535     Co  0.85148537  0.74914267  0.46060733     1.51700
Co2536     Co  0.89641175  0.70256007  0.00026620     1.51600
Co2537     Co  0.90716740  0.78746235  0.49807177     1.51500
O2538       O  0.87763929  0.74765207  0.99936093    -1.43300
C2539       C  0.84069942  0.81322403  0.03357428     1.08300
C2540       C  0.83127658  0.68551247  0.46294856     1.08400
C2541       C  0.83730785  0.68630507  0.04608209     1.08300
C2542       C  0.84562051  0.81987609  0.46429811     1.08300
O2543       O  0.72052236  0.54443637  0.17367657    -0.81300
O2544       O  0.79838345  0.96185918  0.16421297    -0.81300
O2545       O  0.69543149  0.96149436  0.14794661    -0.81400
O2546       O  0.82534355  0.52246996  0.11646618    -0.81300
O2547       O  0.72999543  0.93162966  0.17683876    -0.81400
O2548       O  0.79723436  0.54144628  0.15831437    -0.81300
O2549       O  0.82629923  0.97559597  0.11992837    -0.81300
O2550       O  0.68064085  0.52370567  0.14341247    -0.81400
C2551       C  0.68939734  0.54010108  0.16725211     1.08400
C2552       C  0.82612141  0.96540459  0.14836382     1.08200
C2553       C  0.69993577  0.94147811  0.17051089     1.08400
C2554       C  0.82453629  0.53797994  0.14230434     1.08300
O2555       O  0.77332800  0.56725537  0.10921637    -0.81300
O2556       O  0.73205253  0.92749911  0.11544646    -0.81400
O2557       O  0.69899451  0.52713696  0.07882094    -0.81300
O2558       O  0.79307916  0.95491315  0.07260570    -0.81300
O2559       O  0.77423136  0.92792810  0.11605606    -0.81400
O2560       O  0.72175244  0.56173557  0.11247560    -0.81300
O2561       O  0.79032083  0.53665969  0.06851714    -0.81300
O2562       O  0.70515803  0.95725231  0.08078091    -0.81400
Co2563     Co  0.75239170  0.53626353  0.13834313     1.51500
Co2564     Co  0.75096146  0.95985998  0.14630785     1.51700
Co2565     Co  0.69841406  0.49242697  0.11169304     1.51600
Co2566     Co  0.79000335  0.49639632  0.09516675     1.51500
O2567       O  0.74877861  0.49577038  0.11927550    -1.43300
C2568       C  0.78593242  0.56415023  0.08159594     1.08300
C2569       C  0.71345609  0.92981542  0.09098818     1.08400
C2570       C  0.70381312  0.55578304  0.08829967     1.08300
C2571       C  0.78920031  0.92877072  0.08848510     1.08300
O2572       O  0.68806401  0.52663451  0.35500462    -0.81300
O2573       O  0.82448778  0.97449142  0.37426290    -0.81300
O2574       O  0.78128255  0.53320711  0.33022906    -0.81400
O2575       O  0.71846969  0.96550502  0.32747341    -0.81300
O2576       O  0.81489715  0.53651256  0.37140902    -0.81400
O2577       O  0.67834345  0.97143118  0.36429889    -0.81300
O2578       O  0.79104158  0.96884740  0.33303293    -0.81300
O2579       O  0.71852745  0.56775712  0.33696847    -0.81400
C2580       C  0.69083333  0.55174670  0.33741654     1.08400
C2581       C  0.82029410  0.96838382  0.34502696     1.08200
C2582       C  0.81114882  0.53767457  0.34180232     1.08400
C2583       C  0.68729534  0.96415376  0.33618631     1.08300
O2584       O  0.70853154  0.96122236  0.42439203    -0.81300
O2585       O  0.77723910  0.53961262  0.42769783    -0.81400
O2586       O  0.71032662  0.55067080  0.39992195    -0.81300
O2587       O  0.78507979  0.93352081  0.39137225    -0.81300
O2588       O  0.78677967  0.96786373  0.43156713    -0.81400
O2589       O  0.66763551  0.51902494  0.41579942    -0.81300
O2590       O  0.71816568  0.93011857  0.38351353    -0.81300
O2591       O  0.76739950  0.56898280  0.38512494    -0.81400
Co2592     Co  0.70481377  0.49879767  0.39361771     1.51500
Co2593     Co  0.79738887  0.50388522  0.40153459     1.51700
Co2594     Co  0.74183531  0.53644476  0.36153638     1.51600
Co2595     Co  0.75355004  0.95241498  0.35894499     1.51500
O2596       O  0.75261371  0.49503369  0.37992772    -1.43300
C2597       C  0.70950750  0.93318875  0.41197551     1.08300
C2598       C  0.77493182  0.56722135  0.41415716     1.08400
C2599       C  0.68320914  0.54606962  0.41675155     1.08300
C2600       C  0.79124115  0.93983449  0.42040195     1.08300
O2601       O  0.53484837  0.68576855  0.21958533    -0.81300
O2602       O  0.95115083  0.67706477  0.28437883    -0.81300
O2603       O  0.98230655  0.64483620  0.18372509    -0.81400
O2604       O  0.52196142  0.64109878  0.32153506    -0.81300
O2605       O  0.95876224  0.68124402  0.21345903    -0.81400
O2606       O  0.52820384  0.68385832  0.29028209    -0.81300
O2607       O  0.95689897  0.63445072  0.31496244    -0.81300
O2608       O  0.52195907  0.64327854  0.18995211    -0.81400
C2609       C  0.53592122  0.67140598  0.19299185     1.08400
C2610       C  0.94957103  0.66365548  0.31185744     1.08200
C2611       C  0.96586599  0.67095379  0.18577011     1.08400
C2612       C  0.52777302  0.67077584  0.31783509     1.08300
O2613       O  0.56781956  0.62863160  0.28657515    -0.81300
O2614       O  0.93700585  0.61512377  0.21052963    -0.81400
O2615       O  0.53923335  0.58913783  0.21358734    -0.81300
O2616       O  0.96218135  0.57797340  0.27792837    -0.81300
O2617       O  0.92374227  0.61501544  0.27228514    -0.81400
O2618       O  0.57236718  0.63017118  0.22478942    -0.81300
O2619       O  0.53616093  0.58517683  0.28428963    -0.81300
O2620       O  0.97594065  0.58611007  0.18473739    -0.81400
Co2621     Co  0.54623776  0.65702827  0.25527466     1.51500
Co2622     Co  0.94783285  0.64780022  0.24629755     1.51700
Co2623     Co  0.49437769  0.61097791  0.21747542     1.51600
Co2624     Co  0.99489796  0.61012222  0.29635548     1.51500
O2625       O  0.99867822  0.63500748  0.25489214    -1.43300
C2626       C  0.56502064  0.59865807  0.28798679     1.08300
C2627       C  0.94509111  0.59396953  0.18943149     1.08400
C2628       C  0.56855806  0.60205170  0.21459310     1.08300
C2629       C  0.93101393  0.58622687  0.27737519     1.08300
O2630       O  0.53635448  0.86195450  0.18826859    -0.81300
O2631       O  0.96124758  0.86332670  0.31455902    -0.81300
O2632       O  0.54063835  0.82070864  0.29287929    -0.81400
O2633       O  0.96088807  0.82968686  0.21087846    -0.81300
O2634       O  0.52628335  0.86268698  0.32036548    -0.81400
O2635       O  0.97206083  0.87132781  0.18089276    -0.81300
O2636       O  0.95482551  0.82521618  0.27886624    -0.81300
O2637       O  0.54628893  0.82053554  0.21899143    -0.81400
C2638       C  0.54866561  0.83443931  0.19213667     1.08400
C2639       C  0.95369241  0.83471241  0.30747260     1.08200
C2640       C  0.53883337  0.83520399  0.31923771     1.08400
C2641       C  0.96223481  0.84270592  0.18365897     1.08300
O2642       O  0.97341982  0.92875249  0.21703071    -0.81300
O2643       O  0.53751940  0.91977563  0.28693132    -0.81400
O2644       O  0.57494011  0.87352620  0.23377657    -0.81300
O2645       O  0.92525556  0.88685326  0.27676077    -0.81300
O2646       O  0.96448120  0.92422674  0.28168024    -0.81400
O2647       O  0.54587803  0.91743375  0.22357585    -0.81300
O2648       O  0.93144595  0.89324468  0.21605449    -0.81300
O2649       O  0.56966714  0.87714338  0.28090065    -0.81400
Co2650     Co  0.50604720  0.89454124  0.20692244     1.51500
Co2651     Co  0.49702542  0.89241804  0.29633991     1.51700
Co2652     Co  0.53807297  0.84946769  0.25542892     1.51600
Co2653     Co  0.94670341  0.85820539  0.24583535     1.51500
O2654       O  0.49571820  0.87349075  0.25090677    -1.43300
C2655       C  0.94270571  0.92154757  0.21115670     1.08300
C2656       C  0.56645582  0.90634643  0.28888184     1.08400
C2657       C  0.57374300  0.90212903  0.22374163     1.08300
C2658       C  0.93381101  0.91514351  0.28332165     1.08300
C2659       C  0.88207924  0.96215333  0.33975442    -0.10300
C2660       C  0.84987377  0.95946375  0.32589216     0.05900
C2661       C  0.84695682  0.94591250  0.29551028    -0.04100
C2662       C  0.87548656  0.93309955  0.28130095    -0.08600
C2663       C  0.90730059  0.93529329  0.29565234     0.05000
C2664       C  0.91086027  0.95104028  0.32454260    -0.03600
Br2665     Br  0.95325161  0.95434894  0.34634763    -0.06900
H2666       H  0.88492777  0.97149736  0.36333158     0.08900
H2667       H  0.87277697  0.92066480  0.25903592     0.06900
Br2668     Br  0.80533009  0.94145250  0.27248776    -0.03700
C2669       C  0.62559684  0.90414996  0.30719024    -0.10300
C2670       C  0.59810688  0.92321000  0.29809393     0.05900
C2671       C  0.60299379  0.95648151  0.29644015    -0.04100
C2672       C  0.63411190  0.96982327  0.30578481    -0.08600
C2673       C  0.66084780  0.95054300  0.31594891     0.05000
C2674       C  0.65673477  0.91738516  0.31523434    -0.03600
Br2675     Br  0.69206025  0.88880203  0.32706021    -0.03300
H2676       H  0.62301217  0.87846182  0.30825284     0.08900
H2677       H  0.63719482  0.99534524  0.30591626     0.06900
Br2678     Br  0.56868170  0.98470924  0.28167217    -0.03700
C2679       C  0.84070244  0.55527260  0.29156663    -0.10300
C2680       C  0.84286148  0.54464666  0.32283403     0.05900
C2681       C  0.87597562  0.54348285  0.33663318    -0.04100
C2682       C  0.90498102  0.55194361  0.31891729    -0.08600
C2683       C  0.90238076  0.56539949  0.28879542     0.05000
C2684       C  0.86949451  0.56717605  0.27545044    -0.03600
Br2685     Br  0.86073751  0.59002954  0.23757678    -0.03300
H2686       H  0.81606006  0.55732353  0.28067314     0.08900
H2687       H  0.92942063  0.55191902  0.33043449     0.06900
Br2688     Br  0.88505524  0.53542829  0.38076942    -0.03700
C2689       C  0.62802120  0.55040847  0.33375743    -0.10300
C2690       C  0.65926097  0.56177792  0.32113751     0.05900
C2691       C  0.65852039  0.58245710  0.29486873    -0.04100
C2692       C  0.62722432  0.59225602  0.28292144    -0.08600
C2693       C  0.59619725  0.58133807  0.29610353     0.05000
C2694       C  0.59688407  0.55977106  0.32147395    -0.03600
Br2695     Br  0.55626199  0.54559410  0.34285469    -0.03300
H2696       H  0.62755472  0.53458854  0.35408239     0.08900
H2697       H  0.62714428  0.60979555  0.26408626     0.06900
Br2698     Br  0.69893934  0.59838393  0.27458697    -0.03700
C2699       C  0.86605730  0.96910661  0.19387993    -0.10300
C2700       C  0.85952839  0.95882442  0.16290755     0.05900
C2701       C  0.88693230  0.94592674  0.14523065    -0.04100
C2702       C  0.91590992  0.93588495  0.16103544    -0.08600
C2703       C  0.92071237  0.94305327  0.19297361     0.05000
C2704       C  0.89761793  0.96344525  0.20783917    -0.03600
Br2705     Br  0.91181513  0.99009321  0.24186346    -0.03300
H2706       H  0.84762444  0.98349615  0.20623662     0.08900
H2707       H  0.93452933  0.92184546  0.14847915     0.06900
Br2708     Br  0.88751800  0.94155566  0.09984822    -0.03700
C2709       C  0.63809920  0.94367517  0.17413530    -0.10300
C2710       C  0.66862802  0.93169643  0.18682080     0.05900
C2711       C  0.66727035  0.91183580  0.21352041    -0.04100
C2712       C  0.63576473  0.90432990  0.22666931    -0.08600
C2713       C  0.60560576  0.91623471  0.21357618     0.05000
C2714       C  0.60692723  0.93587493  0.18691591    -0.03600
Br2715     Br  0.56757696  0.94846993  0.16345798    -0.03300
H2716       H  0.63782217  0.95848967  0.15307817     0.08900
H2717       H  0.63478323  0.88763886  0.24624168     0.06900
Br2718     Br  0.70647941  0.89288637  0.23207983    -0.03700
C2719       C  0.88829711  0.59952997  0.16716009    -0.10300
C2720       C  0.91739084  0.58079369  0.17062312     0.05900
C2721       C  0.91681315  0.54906950  0.16031845    -0.04100
C2722       C  0.88629500  0.53588321  0.15024751    -0.08600
C2723       C  0.85608056  0.55313320  0.15213943     0.05000
C2724       C  0.85743319  0.58573686  0.15903729    -0.03600
Br2725     Br  0.81822299  0.61250599  0.15820126    -0.03300
H2726       H  0.88883245  0.62451006  0.17345717     0.08900
H2727       H  0.88614681  0.51187984  0.14146815     0.06900
Br2728     Br  0.95570972  0.52200378  0.16110798    -0.03700
C2729       C  0.63132516  0.53765176  0.18972638    -0.10300
C2730       C  0.66133058  0.55547842  0.18490766     0.05900
C2731       C  0.66056094  0.58851186  0.19031222    -0.04100
C2732       C  0.63005521  0.60295613  0.19923417    -0.08600
C2733       C  0.59973935  0.58515786  0.20366884     0.05000
C2734       C  0.60092775  0.55194120  0.19905326    -0.03600
Br2735     Br  0.56227144  0.52439958  0.20457544    -0.03300
H2736       H  0.63127278  0.51230897  0.18519601     0.08900
H2737       H  0.63016866  0.62850342  0.20257251     0.06900
Br2738     Br  0.69962412  0.61549717  0.18418291    -0.03700
C2739       C  0.84273874  0.85630072  0.07296227    -0.10300
C2740       C  0.82546465  0.84163022  0.04806036     0.05900
C2741       C  0.79222616  0.85144396  0.04202184    -0.04100
C2742       C  0.78191075  0.88155606  0.05263497    -0.08600
C2743       C  0.80091517  0.89798766  0.07540330     0.05000
C2744       C  0.82802174  0.88155881  0.08922099    -0.03600
Br2745     Br  0.83739318  0.88432569  0.13356526    -0.03300
H2746       H  0.86545348  0.84573818  0.08224865     0.08900
H2747       H  0.75780590  0.89062693  0.04545704     0.06900
Br2748     Br  0.75880475  0.82158962  0.02722591    -0.03700
C2749       C  0.84488948  0.63212552  0.06686206    -0.10300
C2750       C  0.82256226  0.65735922  0.06093410     0.05900
C2751       C  0.78761059  0.65164074  0.06378657    -0.04100
C2752       C  0.77586718  0.62019059  0.06709595    -0.08600
C2753       C  0.79838015  0.59429776  0.06806290     0.05000
C2754       C  0.83327696  0.60083375  0.06882911    -0.03600
Br2755     Br  0.86673247  0.56817148  0.07140035    -0.03300
H2756       H  0.87204940  0.63623059  0.06690534     0.08900
H2757       H  0.74909939  0.61597148  0.06992835     0.06900
Br2758     Br  0.75554124  0.68560094  0.06587832    -0.03700
C2759       C  0.83970476  0.90364055  0.42767031    -0.10300
C2760       C  0.80804701  0.91402178  0.43858047     0.05900
C2761       C  0.78982044  0.89393470  0.45932784    -0.04100
C2762       C  0.80051901  0.86239010  0.46430823    -0.08600
C2763       C  0.83219152  0.85172406  0.45382514     0.05000
C2764       C  0.85260529  0.87385776  0.43655313    -0.03600
Br2765     Br  0.89784314  0.86508244  0.42306497    -0.03300
H2766       H  0.85436287  0.91871238  0.41160946     0.08900
H2767       H  0.78400651  0.84608221  0.47670533     0.06900
Br2768     Br  0.75176199  0.90969927  0.48236690    -0.03700
C2769       C  0.78837345  0.65643796  0.42963007    -0.10300
C2770       C  0.81281050  0.65564047  0.45351654     0.05900
C2771       C  0.82190921  0.62522241  0.46576593    -0.04100
C2772       C  0.80670189  0.59727752  0.45476820    -0.08600
C2773       C  0.78379153  0.59787423  0.42996771     0.05000
C2774       C  0.77414495  0.62814416  0.41756974    -0.03600
Br2775     Br  0.74135932  0.63325690  0.38445143    -0.03300
H2776       H  0.78110792  0.67907955  0.41946867     0.08900
H2777       H  0.81501374  0.57458582  0.46406576     0.06900
Br2778     Br  0.85778293  0.61807090  0.49488303    -0.03700
C2779       C  0.89361845  0.79387882  0.36483054    -0.10300
C2780       C  0.91321268  0.79442458  0.39269250     0.05900
C2781       C  0.94767998  0.80338337  0.39013712    -0.04100
C2782       C  0.96090779  0.81293168  0.36088195    -0.08600
C2783       C  0.94100288  0.81455183  0.33376063     0.05000
C2784       C  0.90721666  0.80395184  0.33559644    -0.03600
Br2785     Br  0.87816436  0.80513355  0.29951167    -0.03300
H2786       H  0.86726496  0.78651823  0.36584694     0.08900
H2787       H  0.98690231  0.81994029  0.35928728     0.06900
Br2788     Br  0.97897898  0.80036948  0.42462129    -0.03700
C2789       C  0.91739234  0.81015919  0.15852282    -0.10300
C2790       C  0.94801528  0.82703989  0.15543200     0.05900
C2791       C  0.96079632  0.83339903  0.12463796    -0.04100
C2792       C  0.94549993  0.81972823  0.09839754    -0.08600
C2793       C  0.91489509  0.80281624  0.10129085     0.05000
C2794       C  0.89974487  0.79983379  0.13180916    -0.03600
Br2795     Br  0.85403478  0.78497125  0.13919426    -0.03300
H2796       H  0.90569002  0.80731940  0.18167369     0.08900
H2797       H  0.95679659  0.82400057  0.07528314     0.06900
Br2798     Br  0.99597850  0.86367835  0.11539795    -0.03700
C2799       C  0.94248988  0.72051265  0.38237076    -0.10300
C2800       C  0.92786282  0.70042253  0.40563667     0.05900
C2801       C  0.91994870  0.66904714  0.39684355    -0.04100
C2802       C  0.92444839  0.65909779  0.36561773    -0.08600
C2803       C  0.93842697  0.67929980  0.34194456     0.05000
C2804       C  0.94767415  0.71046561  0.35080133    -0.03600
Br2805     Br  0.97046946  0.73877152  0.32181307    -0.03300
H2806       H  0.95082224  0.74375171  0.38904028     0.08900
H2807       H  0.91798641  0.63461588  0.36013023     0.06900
Br2808     Br  0.90467243  0.63780819  0.42684400    -0.03700
C2809       C  0.92266470  0.72163956  0.12248823    -0.10300
C2810       C  0.93691623  0.71045339  0.09374191     0.05900
C2811       C  0.96344773  0.68842893  0.09630280    -0.04100
C2812       C  0.97324889  0.67711886  0.12644031    -0.08600
C2813       C  0.95796573  0.68778785  0.15504369     0.05000
C2814       C  0.93278050  0.71099240  0.15246262    -0.03600
Br2815     Br  0.90837920  0.72679180  0.18850666    -0.03300
H2816       H  0.90148917  0.73747410  0.12183906     0.08900
H2817       H  0.99249486  0.65897377  0.12728172     0.06900
Br2818     Br  0.98520343  0.67072523  0.05981541    -0.03700
C2819       C  0.66795717  0.90117916  0.44421464    -0.10300
C2820       C  0.69861742  0.90265797  0.42769444     0.05900
C2821       C  0.71517834  0.87317299  0.42116106    -0.04100
C2822       C  0.70358171  0.84445313  0.43464667    -0.08600
C2823       C  0.67314600  0.84290714  0.45142685     0.05000
C2824       C  0.65404783  0.87183234  0.45412777    -0.03600
Br2825     Br  0.60731510  0.87428017  0.46791808    -0.03300
H2826       H  0.65331153  0.92268066  0.44705592     0.08900
H2827       H  0.71765273  0.82284311  0.43052201     0.06900
Br2828     Br  0.75251555  0.86848046  0.39227324    -0.03700
C2829       C  0.69662944  0.59438564  0.44867009    -0.10300
C2830       C  0.67161473  0.57475191  0.43475940     0.05900
C2831       C  0.63884545  0.58724665  0.43189863    -0.04100
C2832       C  0.63278134  0.61933459  0.43960828    -0.08600
C2833       C  0.65865736  0.63974330  0.45118920     0.05000
C2834       C  0.69039693  0.62623302  0.45710394    -0.03600
Br2835     Br  0.72415229  0.64898771  0.48046524    -0.03300
H2836       H  0.72137987  0.58471751  0.45307680     0.08900
H2837       H  0.60733846  0.62835446  0.43684956     0.06900
Br2838     Br  0.60157210  0.56161271  0.41787765    -0.03700
C2839       C  0.67380768  0.86739681  0.03650745    -0.10300
C2840       C  0.68108558  0.83861465  0.05246627     0.05900
C2841       C  0.69843074  0.84057499  0.08126362    -0.04100
C2842       C  0.70918004  0.87033795  0.09251024    -0.08600
C2843       C  0.70213097  0.89918239  0.07627668     0.05000
C2844       C  0.68347405  0.89727998  0.04810804    -0.03600
Br2845     Br  0.66845757  0.93405710  0.02507183    -0.03300
H2846       H  0.65890713  0.86683692  0.01538871     0.08900
H2847       H  0.72245224  0.87075861  0.11482321     0.06900
Br2848     Br  0.70536668  0.80404183  0.10777173    -0.03700
C2849       C  0.66285384  0.61583552  0.03248695    -0.10300
C2850       C  0.66698844  0.64381496  0.05052478     0.05900
C2851       C  0.67771967  0.64114291  0.08180606    -0.04100
C2852       C  0.68748312  0.61179460  0.09326432    -0.08600
C2853       C  0.68783072  0.58428313  0.07416225     0.05000
C2854       C  0.67376588  0.58615757  0.04376246    -0.03600
Br2855     Br  0.66791690  0.54960742  0.01729436    -0.03300
H2856       H  0.65064699  0.61693473  0.00979317     0.08900
H2857       H  0.69552957  0.61089402  0.11756778     0.06900
Br2858     Br  0.67523631  0.67559610  0.11152375    -0.03700
C2859       C  0.55757435  0.82289265  0.40703773    -0.10300
C2860       C  0.58127455  0.79868518  0.40610873     0.05900
C2861       C  0.59527892  0.79046583  0.37590230    -0.04100
C2862       C  0.57941079  0.80048180  0.34810763    -0.08600
C2863       C  0.55364427  0.82299972  0.34921558     0.05000
C2864       C  0.54551123  0.83659345  0.37924682    -0.03600
Br2865     Br  0.51889892  0.87433988  0.38563256    -0.03300
H2866       H  0.54936887  0.83227697  0.42962627     0.08900
H2867       H  0.58923394  0.79275473  0.32541612     0.06900
Br2868     Br  0.63943343  0.77210996  0.36946080    -0.03700
C2869       C  0.56927159  0.84140520  0.13686019    -0.10300
C2870       C  0.56700647  0.82165926  0.16406237     0.05900
C2871       C  0.58252233  0.79178351  0.16259576    -0.04100
C2872       C  0.59199797  0.77984530  0.13289174    -0.08600
C2873       C  0.58620163  0.79728480  0.10462876     0.05000
C2874       C  0.57797150  0.82940466  0.10729449    -0.03600
Br2875     Br  0.58176192  0.85865817  0.07227594    -0.03300
H2876       H  0.56338450  0.86647045  0.13819143     0.08900
H2877       H  0.60373058  0.75667208  0.13191165     0.06900
Br2878     Br  0.59439524  0.76804463  0.19984728    -0.03700
C2879       C  0.51995134  0.68327444  0.37468404    -0.10300
C2880       C  0.53880541  0.68762598  0.34648445     0.05900
C2881       C  0.57201754  0.69940093  0.34847358    -0.04100
C2882       C  0.58551401  0.70636288  0.37803941    -0.08600
C2883       C  0.56620651  0.70366397  0.40631735     0.05000
C2884       C  0.53269319  0.69225257  0.40420853    -0.03600
Br2885     Br  0.50394839  0.68583154  0.44054482    -0.03300
H2886       H  0.49580605  0.67109831  0.37406516     0.08900
H2887       H  0.61211069  0.71237570  0.37879787     0.06900
Br2888     Br  0.60198869  0.70134796  0.31238007    -0.03700
C2889       C  0.56647754  0.66307210  0.14364449    -0.10300
C2890       C  0.54974955  0.68501934  0.16311090     0.05900
C2891       C  0.53978743  0.71434023  0.14981915    -0.04100
C2892       C  0.54737328  0.72105021  0.11768417    -0.08600
C2893       C  0.56439761  0.69881401  0.09858596     0.05000
C2894       C  0.57262323  0.66923343  0.11176907    -0.03600
Br2895     Br  0.58974106  0.63512620  0.08668470    -0.03300
H2896       H  0.57302951  0.63981411  0.15288205     0.08900
H2897       H  0.54023609  0.74375161  0.10766079     0.06900
Br2898     Br  0.51358470  0.74444173  0.17346188    -0.03700
O2899       O  0.56817642  0.70502002  0.54166211    -0.81300
O2900       O  0.57912840  0.79018718  0.96371815    -0.81300
O2901       O  0.62298834  0.76666639  0.57534813    -0.81400
O2902       O  0.61377850  0.72196707  0.93393777    -0.81300
O2903       O  0.58100018  0.78928386  0.54751930    -0.81400
O2904       O  0.56942523  0.70735498  0.96404836    -0.81300
O2905       O  0.61979288  0.76789174  0.93389944    -0.81300
O2906       O  0.61207248  0.71941954  0.57213790    -0.81400
C2907       C  0.58171092  0.70884772  0.56895700     1.08400
C2908       C  0.59347975  0.78489823  0.93643412     1.08200
C2909       C  0.59652600  0.78364695  0.57396457     1.08400
C2910       C  0.58340420  0.71135821  0.93667678     1.08300
O2911       O  0.62016550  0.67242336  0.97739147    -0.81300
O2912       O  0.63640020  0.81301314  0.52703667    -0.81400
O2913       O  0.67006415  0.70051363  0.54393665    -0.81300
O2914       O  0.67376959  0.78388053  0.95879140    -0.81300
O2915       O  0.63383841  0.81401863  0.98141314    -0.81400
O2916       O  0.62474673  0.67328337  0.52608236    -0.81300
O2917       O  0.66704261  0.69788044  0.95917332    -0.81300
O2918       O  0.67617307  0.78039652  0.54570763    -0.81400
Co2919     Co  0.59786162  0.70573910  0.50306856     1.51500
Co2920     Co  0.60462732  0.78423105  0.00493496     1.51700
Co2921     Co  0.64546103  0.74138764  0.54280959     1.51600
Co2922     Co  0.64602962  0.74224003  0.96374499     1.51500
O2923       O  0.62385806  0.74359502  0.50346942    -1.43300
C2924       C  0.64882982  0.67203607  0.96306336     1.08300
C2925       C  0.66449610  0.80870987  0.54101766     1.08400
C2926       C  0.65387961  0.67427761  0.53902329     1.08300
C2927       C  0.66037675  0.81159053  0.96454354     1.08300
O2928       O  0.88775170  0.72701689  0.56789038    -0.81300
O2929       O  0.86922590  0.76996235  0.92268361    -0.81300
O2930       O  0.92596328  0.71331134  0.96221908    -0.81400
O2931       O  0.91455625  0.79340928  0.54537083    -0.81300
O2932       O  0.88154955  0.72356620  0.93155788    -0.81400
O2933       O  0.87256590  0.77316112  0.57439215    -0.81300
O2934       O  0.91231432  0.78951143  0.94975790    -0.81300
O2935       O  0.92986740  0.71509308  0.53492618    -0.81400
C2936       C  0.91818979  0.71817024  0.56347361     1.08400
C2937       C  0.89737301  0.78450934  0.92336931     1.08200
C2938       C  0.91191068  0.71388014  0.93480035     1.08400
C2939       C  0.89961627  0.78939440  0.57217465     1.08300
O2940       O  0.82687840  0.78621151  0.53879212    -0.81300
O2941       O  0.81813620  0.71328488  0.96083539    -0.81400
O2942       O  0.86692806  0.68329235  0.53428998    -0.81300
O2943       O  0.87246134  0.82053108  0.98219739    -0.81300
O2944       O  0.83023883  0.79331050  0.95795103    -0.81400
O2945       O  0.82235740  0.71284057  0.54510919    -0.81300
O2946       O  0.86924534  0.81648447  0.51768118    -0.81300
O2947       O  0.86215093  0.68220525  0.97113755    -0.81400
Co2948     Co  0.85452835  0.74805785  0.53944311     1.51500
Co2949     Co  0.85148501  0.74914226  0.96060751     1.51700
Co2950     Co  0.89641228  0.70256019  0.50026612     1.51600
Co2951     Co  0.90716683  0.78746219  0.99807188     1.51500
O2952       O  0.87763981  0.74765222  0.49936071    -1.43300
C2953       C  0.84069909  0.81322382  0.53357333     1.08300
C2954       C  0.83127655  0.68551222  0.96294836     1.08400
C2955       C  0.83730932  0.68630497  0.54608267     1.08300
C2956       C  0.84561897  0.81987527  0.96429918     1.08300
O2957       O  0.72052260  0.54443679  0.67367665    -0.81300
O2958       O  0.79838345  0.96185928  0.66421303    -0.81300
O2959       O  0.69543189  0.96149362  0.64794688    -0.81400
O2960       O  0.82534419  0.52246969  0.61646712    -0.81300
O2961       O  0.72999585  0.93162859  0.67683861    -0.81400
O2962       O  0.79723477  0.54144605  0.65831515    -0.81300
O2963       O  0.82629888  0.97559550  0.61992808    -0.81300
O2964       O  0.68064131  0.52370598  0.64341238    -0.81400
C2965       C  0.68939762  0.54010148  0.66725200     1.08400
C2966       C  0.82612127  0.96540440  0.64836364     1.08200
C2967       C  0.69993619  0.94147718  0.67051096     1.08400
C2968       C  0.82453678  0.53797968  0.64230526     1.08300
O2969       O  0.77332922  0.56725530  0.60921699    -0.81300
O2970       O  0.73205209  0.92749885  0.61544616    -0.81400
O2971       O  0.69899548  0.52713694  0.57882099    -0.81300
O2972       O  0.79307845  0.95491293  0.57260529    -0.81300
O2973       O  0.77423153  0.92792755  0.61605573    -0.81400
O2974       O  0.72175354  0.56173558  0.61247555    -0.81300
O2975       O  0.79032235  0.53665967  0.56851784    -0.81300
O2976       O  0.70515767  0.95725236  0.58078090    -0.81400
Co2977     Co  0.75239230  0.53626358  0.63834353     1.51500
Co2978     Co  0.75096170  0.95985911  0.64630771     1.51700
Co2979     Co  0.69841465  0.49242706  0.61169326     1.51600
Co2980     Co  0.79000405  0.49639630  0.59516739     1.51500
O2981       O  0.74877917  0.49577044  0.61927595    -1.43300
C2982       C  0.78593408  0.56415017  0.58159673     1.08300
C2983       C  0.71345577  0.92981539  0.59098789     1.08400
C2984       C  0.70381429  0.55578304  0.58829959     1.08300
C2985       C  0.78919994  0.92877037  0.58848457     1.08300
O2986       O  0.68806376  0.52663448  0.85500444    -0.81300
O2987       O  0.82448752  0.97449025  0.87426422    -0.81300
O2988       O  0.78128219  0.53320740  0.83022878    -0.81400
O2989       O  0.71846989  0.96550502  0.82747346    -0.81300
O2990       O  0.81489676  0.53651310  0.87140873    -0.81400
O2991       O  0.67834330  0.97143156  0.86429856    -0.81300
O2992       O  0.79104168  0.96884692  0.83303394    -0.81300
O2993       O  0.71852701  0.56775722  0.83696824    -0.81400
C2994       C  0.69083296  0.55174667  0.83741634     1.08400
C2995       C  0.82029408  0.96838308  0.84502815     1.08200
C2996       C  0.81114842  0.53767500  0.84180203     1.08400
C2997       C  0.68729543  0.96415391  0.83618609     1.08300
O2998       O  0.70853072  0.96122235  0.92439203    -0.81300
O2999       O  0.77723882  0.53961271  0.92769763    -0.81400
O3000       O  0.71032632  0.55067097  0.89992170    -0.81300
O3001       O  0.78507886  0.93352009  0.89137344    -0.81300
O3002       O  0.78677855  0.96786295  0.93156829    -0.81400
O3003       O  0.66763537  0.51902503  0.91579934    -0.81300
O3004       O  0.71816480  0.93011873  0.88351343    -0.81300
O3005       O  0.76739902  0.56898297  0.88512482    -0.81400
Co3006     Co  0.70481369  0.49879780  0.89361759     1.51500
Co3007     Co  0.79738879  0.50388565  0.90153426     1.51700
Co3008     Co  0.74183498  0.53644492  0.86153614     1.51600
Co3009     Co  0.75354975  0.95241474  0.85894553     1.51500
O3010       O  0.75261362  0.49503389  0.87992752    -1.43300
C3011       C  0.70950658  0.93318881  0.91197536     1.08300
C3012       C  0.77493145  0.56722145  0.91415701     1.08400
C3013       C  0.68320891  0.54606976  0.91675138     1.08300
C3014       C  0.79123931  0.93983358  0.92040337     1.08300
O3015       O  0.53484851  0.68576821  0.71958539    -0.81300
O3016       O  0.95115111  0.67706590  0.78437893    -0.81300
O3017       O  0.98230658  0.64483670  0.68372525    -0.81400
O3018       O  0.52196073  0.64109849  0.82153523    -0.81300
O3019       O  0.95876237  0.68124471  0.71345901    -0.81400
O3020       O  0.52820344  0.68385804  0.79028229    -0.81300
O3021       O  0.95689886  0.63445182  0.81496254    -0.81300
O3022       O  0.52195908  0.64327823  0.68995216    -0.81400
C3023       C  0.53592142  0.67140558  0.69299192     1.08400
C3024       C  0.94957138  0.66365671  0.81185759     1.08200
C3025       C  0.96586606  0.67095433  0.68577014     1.08400
C3026       C  0.52777245  0.67077555  0.81783530     1.08300
O3027       O  0.56781896  0.62863126  0.78657553    -0.81300
O3028       O  0.93700581  0.61512446  0.71052996    -0.81400
O3029       O  0.53923319  0.58913762  0.71358725    -0.81300
O3030       O  0.96218077  0.57797429  0.77792842    -0.81300
O3031       O  0.92374197  0.61501659  0.77228544    -0.81400
O3032       O  0.57236705  0.63017082  0.72478983    -0.81300
O3033       O  0.53616029  0.58517654  0.78428972    -0.81300
O3034       O  0.97594065  0.58611066  0.68473780    -0.81400
Co3035     Co  0.54623752  0.65702798  0.75527491     1.51500
Co3036     Co  0.94783287  0.64780112  0.74629773     1.51700
Co3037     Co  0.49437751  0.61097776  0.71747542     1.51600
Co3038     Co  0.99489758  0.61012280  0.79635565     1.51500
O3039       O  0.99867815  0.63500808  0.75489237    -1.43300
C3040       C  0.56502003  0.59865773  0.78798694     1.08300
C3041       C  0.94509113  0.59397012  0.68943191     1.08400
C3042       C  0.56855793  0.60205145  0.71459320     1.08300
C3043       C  0.93101342  0.58622794  0.77737531     1.08300
O3044       O  0.53635498  0.86195379  0.68826863    -0.81300
O3045       O  0.96124719  0.86332737  0.81455923    -0.81300
O3046       O  0.54063859  0.82070810  0.79287896    -0.81400
O3047       O  0.96088759  0.82968700  0.71087875    -0.81300
O3048       O  0.52628354  0.86268645  0.82036508    -0.81400
O3049       O  0.97206072  0.87132783  0.68089297    -0.81300
O3050       O  0.95482500  0.82521670  0.77886664    -0.81300
O3051       O  0.54628917  0.82053489  0.71899159    -0.81400
C3052       C  0.54866601  0.83443857  0.69213683     1.08400
C3053       C  0.95369184  0.83471309  0.80747295     1.08200
C3054       C  0.53883366  0.83520351  0.81923731     1.08400
C3055       C  0.96223450  0.84270599  0.68365922     1.08300
O3056       O  0.97341974  0.92875264  0.71703066    -0.81300
O3057       O  0.53751972  0.91977526  0.78693113    -0.81400
O3058       O  0.57494053  0.87352559  0.73377653    -0.81300
O3059       O  0.92525541  0.88685396  0.77676081    -0.81300
O3060       O  0.96448123  0.92422729  0.78168025    -0.81400
O3061       O  0.54587853  0.91743317  0.72357576    -0.81300
O3062       O  0.93144580  0.89324490  0.71605451    -0.81300
O3063       O  0.56966747  0.87714300  0.78090060    -0.81400
Co3064     Co  0.50604776  0.89454070  0.70692227     1.51500
Co3065     Co  0.49702570  0.89241776  0.79633972     1.51700
Co3066     Co  0.53807327  0.84946728  0.75542884     1.51600
Co3067     Co  0.94670312  0.85820577  0.74583555     1.51500
O3068       O  0.49571851  0.87349040  0.75090663    -1.43300
C3069       C  0.94270563  0.92154772  0.71115659     1.08300
C3070       C  0.56645614  0.90634607  0.78888172     1.08400
C3071       C  0.57374347  0.90212840  0.72374159     1.08300
C3072       C  0.93381100  0.91514417  0.78332173     1.08300
C3073       C  0.88207931  0.96215311  0.83975536    -0.10300
C3074       C  0.84987380  0.95946346  0.82589321     0.05900
C3075       C  0.84695686  0.94591276  0.79551107    -0.04100
C3076       C  0.87548663  0.93310031  0.78130138    -0.08600
C3077       C  0.90730069  0.93529395  0.79565269     0.05000
C3078       C  0.91086037  0.95104048  0.82454321    -0.03600
Br3079     Br  0.95325181  0.95434902  0.84634809    -0.06900
H3080       H  0.88492784  0.97149690  0.86333264     0.08900
H3081       H  0.87277701  0.92066589  0.75903617     0.06900
Br3082     Br  0.80533009  0.94145276  0.77248858    -0.03700
C3083       C  0.62559715  0.90414982  0.80719018    -0.10300
C3084       C  0.59810715  0.92320974  0.79809377     0.05900
C3085       C  0.60299399  0.95648125  0.79643985    -0.04100
C3086       C  0.63411208  0.96982314  0.80578443    -0.08600
C3087       C  0.66084804  0.95054299  0.81594861     0.05000
C3088       C  0.65673507  0.91738512  0.81523418    -0.03600
Br3089     Br  0.69206058  0.88880208  0.82706005    -0.03300
H3090       H  0.62301253  0.87846168  0.80825289     0.08900
H3091       H  0.63719492  0.99534512  0.80591578     0.06900
Br3092     Br  0.56868182  0.98470886  0.78167181    -0.03700
C3093       C  0.84070193  0.55527352  0.79156647    -0.10300
C3094       C  0.84286103  0.54464718  0.82283373     0.05900
C3095       C  0.87597518  0.54348322  0.83663284    -0.04100
C3096       C  0.90498054  0.55194423  0.81891702    -0.08600
C3097       C  0.90238020  0.56540055  0.78879536     0.05000
C3098       C  0.86949394  0.56717726  0.77545042    -0.03600
Br3099     Br  0.86073687  0.59003138  0.73757715    -0.03300
H3100       H  0.81605952  0.55732459  0.78067305     0.08900
H3101       H  0.92942017  0.55191949  0.83043418     0.06900
Br3102     Br  0.88505487  0.53542822  0.88076899    -0.03700
C3103       C  0.62802083  0.55040811  0.83375722    -0.10300
C3104       C  0.65926054  0.56177775  0.82113731     0.05900
C3105       C  0.65851983  0.58245698  0.79486858    -0.04100
C3106       C  0.62722369  0.59225580  0.78292136    -0.08600
C3107       C  0.59619668  0.58133770  0.79610346     0.05000
C3108       C  0.59688364  0.55977061  0.82147381    -0.03600
Br3109     Br  0.55626166  0.54559349  0.84285459    -0.03300
H3110       H  0.62755445  0.53458815  0.85408215     0.08900
H3111       H  0.62714355  0.60979540  0.76408625     0.06900
Br3112     Br  0.69893867  0.59838411  0.77458685    -0.03700
C3113       C  0.86605729  0.96910667  0.69387956    -0.10300
C3114       C  0.85952831  0.95882429  0.66290726     0.05900
C3115       C  0.88693214  0.94592640  0.64523041    -0.04100
C3116       C  0.91590980  0.93588472  0.66103522    -0.08600
C3117       C  0.92071235  0.94305332  0.69297333     0.05000
C3118       C  0.89761792  0.96344539  0.70783878    -0.03600
Br3119     Br  0.91181506  0.99009337  0.74186307    -0.03300
H3120       H  0.84762446  0.98349628  0.70623620     0.08900
H3121       H  0.93452915  0.92184511  0.64847901     0.06900
Br3122     Br  0.88751771  0.94155502  0.59984801    -0.03700
C3123       C  0.63809968  0.94367414  0.67413519    -0.10300
C3124       C  0.66862847  0.93169548  0.68682082     0.05900
C3125       C  0.66727078  0.91183507  0.71352058    -0.04100
C3126       C  0.63576514  0.90432926  0.72666946    -0.08600
C3127       C  0.60560622  0.91623404  0.71357622     0.05000
C3128       C  0.60692772  0.93587410  0.68691585    -0.03600
Br3129     Br  0.56757748  0.94846915  0.66345787    -0.03300
H3130       H  0.63782265  0.95848847  0.65307793     0.08900
H3131       H  0.63478360  0.88763831  0.74624191     0.06900
Br3132     Br  0.70647986  0.89288594  0.73208028    -0.03700
C3133       C  0.88829717  0.59953019  0.66716048    -0.10300
C3134       C  0.91739097  0.58079407  0.67062365     0.05900
C3135       C  0.91681350  0.54906980  0.66031920    -0.04100
C3136       C  0.88629542  0.53588325  0.65024847    -0.08600
C3137       C  0.85608090  0.55313311  0.65214033     0.05000
C3138       C  0.85743334  0.58573686  0.65903783    -0.03600
Br3139     Br  0.81822302  0.61250582  0.65820154    -0.03300
H3140       H  0.88883239  0.62451033  0.67345733     0.08900
H3141       H  0.88614735  0.51187981  0.64146930     0.06900
Br3142     Br  0.95571027  0.52200432  0.66110872    -0.03700
C3143       C  0.63132534  0.53765190  0.68972607    -0.10300
C3144       C  0.66133069  0.55547872  0.68490744     0.05900
C3145       C  0.66056085  0.58851213  0.69031209    -0.04100
C3146       C  0.63005504  0.60295621  0.69923414    -0.08600
C3147       C  0.59973927  0.58515778  0.70366879     0.05000
C3148       C  0.60092784  0.55194116  0.69905302    -0.03600
Br3149     Br  0.56227165  0.52439938  0.70457509    -0.03300
H3150       H  0.63127309  0.51230913  0.68519562     0.08900
H3151       H  0.63016836  0.62850348  0.70257258     0.06900
Br3152     Br  0.69962383  0.61549767  0.68418277    -0.03700
C3153       C  0.84273808  0.85630024  0.57296157    -0.10300
C3154       C  0.82546410  0.84162989  0.54805951     0.05900
C3155       C  0.79222565  0.85144376  0.54202094    -0.04100
C3156       C  0.78191025  0.88155583  0.55263417    -0.08600
C3157       C  0.80091471  0.89798736  0.57540256     0.05000
C3158       C  0.82802112  0.88155833  0.58922030    -0.03600
Br3159     Br  0.83739266  0.88432523  0.63356457    -0.03300
H3160       H  0.86545277  0.84573766  0.58224797     0.08900
H3161       H  0.75780550  0.89062681  0.54545612     0.06900
Br3162     Br  0.75880411  0.82158975  0.52722386    -0.03700
C3163       C  0.84489151  0.63212545  0.56686283    -0.10300
C3164       C  0.82256418  0.65735915  0.56093508     0.05900
C3165       C  0.78761258  0.65164067  0.56378794    -0.04100
C3166       C  0.77586919  0.62019055  0.56709720    -0.08600
C3167       C  0.79838211  0.59429771  0.56806392     0.05000
C3168       C  0.83327897  0.60083365  0.56883005    -0.03600
Br3169     Br  0.86673442  0.56817129  0.57140124    -0.03300
H3170       H  0.87205143  0.63623054  0.56690579     0.08900
H3171       H  0.74910145  0.61597145  0.56992973     0.06900
Br3172     Br  0.75554326  0.68560083  0.56588034    -0.03700
C3173       C  0.83970205  0.90363912  0.92767408    -0.10300
C3174       C  0.80804460  0.91402083  0.93858188     0.05900
C3175       C  0.78981682  0.89393251  0.95932832    -0.04100
C3176       C  0.80052144  0.86239340  0.96430315    -0.08600
C3177       C  0.83218908  0.85172244  0.95382665     0.05000
C3178       C  0.85260396  0.87385737  0.93655555    -0.03600
Br3179     Br  0.89784182  0.86508285  0.92306865    -0.03300
H3180       H  0.85436197  0.91871298  0.91161276     0.08900
H3181       H  0.78398700  0.84606406  0.97671402     0.06900
Br3182     Br  0.75175882  0.90969669  0.98236748    -0.03700
C3183       C  0.78837337  0.65643788  0.92962999    -0.10300
C3184       C  0.81281055  0.65564027  0.95351633     0.05900
C3185       C  0.82190932  0.62522221  0.96576562    -0.04100
C3186       C  0.80670185  0.59727739  0.95476794    -0.08600
C3187       C  0.78379131  0.59787422  0.92996757     0.05000
C3188       C  0.77414475  0.62814416  0.91756967    -0.03600
Br3189     Br  0.74135904  0.63325706  0.88445145    -0.03300
H3190       H  0.78110784  0.67907951  0.91946868     0.08900
H3191       H  0.81501370  0.57458565  0.96406541     0.06900
Br3192     Br  0.85778326  0.61807070  0.99488252    -0.03700
C3193       C  0.89361780  0.79387896  0.86483065    -0.10300
C3194       C  0.91321169  0.79442526  0.89269281     0.05900
C3195       C  0.94767881  0.80338475  0.89013773    -0.04100
C3196       C  0.96090678  0.81293316  0.86088264    -0.08600
C3197       C  0.94100219  0.81455267  0.83376108     0.05000
C3198       C  0.90721617  0.80395206  0.83559661    -0.03600
Br3199     Br  0.87816426  0.80513302  0.79951154    -0.03300
H3200       H  0.86726448  0.78651785  0.86584681     0.08900
H3201       H  0.98690107  0.81994236  0.85928823     0.06900
Br3202     Br  0.97897751  0.80037209  0.92462226    -0.03700
C3203       C  0.91739197  0.81015940  0.65852283    -0.10300
C3204       C  0.94801499  0.82704003  0.65543217     0.05900
C3205       C  0.96079609  0.83339929  0.62463818    -0.04100
C3206       C  0.94549971  0.81972871  0.59839765    -0.08600
C3207       C  0.91489481  0.80281681  0.60129079     0.05000
C3208       C  0.89974452  0.79983420  0.63180906    -0.03600
Br3209     Br  0.85403444  0.78497155  0.63919395    -0.03300
H3210       H  0.90568959  0.80731950  0.68167367     0.08900
H3211       H  0.95679645  0.82400114  0.57528329     0.06900
Br3212     Br  0.99597835  0.86367857  0.61539831    -0.03700
C3213       C  0.94249080  0.72051348  0.88237125    -0.10300
C3214       C  0.92786366  0.70042358  0.90563713     0.05900
C3215       C  0.91994953  0.66904825  0.89684382    -0.04100
C3216       C  0.92444901  0.65909922  0.86561793    -0.08600
C3217       C  0.93842771  0.67930114  0.84194482     0.05000
C3218       C  0.94767529  0.71046684  0.85080183    -0.03600
Br3219     Br  0.97047114  0.73877266  0.82181385    -0.03300
H3220       H  0.95082348  0.74375357  0.88904119     0.08900
H3221       H  0.91798673  0.63461727  0.86013030     0.06900
Br3222     Br  0.90467346  0.63780911  0.92684412    -0.03700
C3223       C  0.92266512  0.72164014  0.62248796    -0.10300
C3224       C  0.93691690  0.71045406  0.59374168     0.05900
C3225       C  0.96344822  0.68842943  0.59630274    -0.04100
C3226       C  0.97324911  0.67711928  0.62644031    -0.08600
C3227       C  0.95796582  0.68778828  0.65504362     0.05000
C3228       C  0.93278056  0.71099280  0.65246241    -0.03600
Br3229     Br  0.90837866  0.72679180  0.68850628    -0.03300
H3230       H  0.90148960  0.73747469  0.62183868     0.08900
H3231       H  0.99249502  0.65897413  0.62728182     0.06900
Br3232     Br  0.98520401  0.67072562  0.55981547    -0.03700
C3233       C  0.66795657  0.90117929  0.94421473    -0.10300
C3234       C  0.69861646  0.90265801  0.92769400     0.05900
C3235       C  0.71517718  0.87317301  0.92116018    -0.04100
C3236       C  0.70358080  0.84445319  0.93464597    -0.08600
C3237       C  0.67314550  0.84290730  0.95142676     0.05000
C3238       C  0.65404739  0.87183251  0.95412805    -0.03600
Br3239     Br  0.60731493  0.87428053  0.96791920    -0.03300
H3240       H  0.65331109  0.92268084  0.94705638     0.08900
H3241       H  0.71765169  0.82284315  0.93052104     0.06900
Br3242     Br  0.75251404  0.86848041  0.89227194    -0.03700
C3243       C  0.69662922  0.59438578  0.94866996    -0.10300
C3244       C  0.67161450  0.57475206  0.93475925     0.05900
C3245       C  0.63884523  0.58724684  0.93189850    -0.04100
C3246       C  0.63278112  0.61933477  0.93960826    -0.08600
C3247       C  0.65865714  0.63974344  0.95118922     0.05000
C3248       C  0.69039672  0.62623314  0.95710389    -0.03600
Br3249     Br  0.72415213  0.64898777  0.98046517    -0.03300
H3250       H  0.72137965  0.58471763  0.95307664     0.08900
H3251       H  0.60733825  0.62835466  0.93684956     0.06900
Br3252     Br  0.60157189  0.56161297  0.91787740    -0.03700
C3253       C  0.67380730  0.86739689  0.53650712    -0.10300
C3254       C  0.68108548  0.83861471  0.55246583     0.05900
C3255       C  0.69843092  0.84057502  0.58126300    -0.04100
C3256       C  0.70918013  0.87033797  0.59250963    -0.08600
C3257       C  0.70213078  0.89918243  0.57627621     0.05000
C3258       C  0.68347373  0.89728006  0.54810766    -0.03600
Br3259     Br  0.66845722  0.93405723  0.52507155    -0.03300
H3260       H  0.65890648  0.86683700  0.51538853     0.08900
H3261       H  0.72245248  0.87075857  0.61482251     0.06900
Br3262     Br  0.70536720  0.80404184  0.60777099    -0.03700
C3263       C  0.66285453  0.61583537  0.53248694    -0.10300
C3264       C  0.66698943  0.64381493  0.55052455     0.05900
C3265       C  0.67772118  0.64114305  0.58180568    -0.04100
C3266       C  0.68748493  0.61179483  0.59326392    -0.08600
C3267       C  0.68783212  0.58428321  0.57416203     0.05000
C3268       C  0.67376671  0.58615747  0.54376247    -0.03600
Br3269     Br  0.66791695  0.54960715  0.51729477    -0.03300
H3270       H  0.65064729  0.61693446  0.50979333     0.08900
H3271       H  0.69553186  0.61089447  0.61756726     0.06900
Br3272     Br  0.67523794  0.67559630  0.61152333    -0.03700
C3273       C  0.55757537  0.82289264  0.90703709    -0.10300
C3274       C  0.58127545  0.79868510  0.90610805     0.05900
C3275       C  0.59527965  0.79046555  0.87590161    -0.04100
C3276       C  0.57941134  0.80048142  0.84810700    -0.08600
C3277       C  0.55364486  0.82299939  0.84921505     0.05000
C3278       C  0.54551216  0.83659336  0.87924623    -0.03600
Br3279     Br  0.51890034  0.87434008  0.88563199    -0.03300
H3280       H  0.54937009  0.83227712  0.92962563     0.08900
H3281       H  0.58923428  0.79275420  0.82541545     0.06900
Br3282     Br  0.63943407  0.77210950  0.86945999    -0.03700
C3283       C  0.56927231  0.84140437  0.63686053    -0.10300
C3284       C  0.56700702  0.82165845  0.66406268     0.05900
C3285       C  0.58252287  0.79178266  0.66259618    -0.04100
C3286       C  0.59199861  0.77984443  0.63289219    -0.08600
C3287       C  0.58620233  0.79728394  0.60462920     0.05000
C3288       C  0.57797225  0.82940381  0.60729489    -0.03600
Br3289     Br  0.58176265  0.85865729  0.57227631    -0.03300
H3290       H  0.56338529  0.86646964  0.63819172     0.08900
H3291       H  0.60373121  0.75667120  0.63191212     0.06900
Br3292     Br  0.59439551  0.76804378  0.69984780    -0.03700
C3293       C  0.51995084  0.68327391  0.87468439    -0.10300
C3294       C  0.53880476  0.68762568  0.84648473     0.05900
C3295       C  0.57201672  0.69940108  0.84847378    -0.04100
C3296       C  0.58551318  0.70636325  0.87803957    -0.08600
C3297       C  0.56620583  0.70366412  0.90631757     0.05000
C3298       C  0.53269267  0.69225223  0.90420886    -0.03600
Br3299     Br  0.50394811  0.68583070  0.94054525    -0.03300
H3300       H  0.49580570  0.67109751  0.87406557     0.08900
H3301       H  0.61210977  0.71237635  0.87879796     0.06900
Br3302     Br  0.60198779  0.70134837  0.81238022    -0.03700
C3303       C  0.56647799  0.66307149  0.64364466    -0.10300
C3304       C  0.54974995  0.68501880  0.66311098     0.05900
C3305       C  0.53978793  0.71433966  0.64981912    -0.04100
C3306       C  0.54737387  0.72104954  0.61768415    -0.08600
C3307       C  0.56439830  0.69881333  0.59858603     0.05000
C3308       C  0.57262394  0.66923278  0.61176925    -0.03600
Br3309     Br  0.58974224  0.63512561  0.58668507    -0.03300
H3310       H  0.57302988  0.63981351  0.65288230     0.08900
H3311       H  0.54023668  0.74375091  0.60766069     0.06900
Br3312     Br  0.51358519  0.74444124  0.67346171    -0.03700
loop_ 
_geom_bond_atom_site_label_1 
_geom_bond_atom_site_label_2 
_geom_bond_distance 
_geom_bond_site_symmetry_2 
_ccdc_geom_bond_type 
O1            C9   1.285       .  A
O1          Co21   2.000       .  S
O2           C10   1.301       .  A
O2          Co22   2.034       .  S
O3           C11   1.272       .  A
O3          Co23   1.955       .  S
O4           C12   1.279       .  A
O4          Co24   1.987       .  S
O5           C11   1.300       .  A
O5         Co436   2.033       .  S
O6           C12   1.286       .  A
O6         Co435   2.003       .  S
O7           C10   1.271       .  A
O7          Co24   1.962       .  S
O8            C9   1.282       .  A
O8          Co23   2.014       .  S
C9          C409   1.478       .  S
C10         C376   1.489       .  S
C11         C389   1.476       .  S
C12         C399   1.492       .  S
O13          C26   1.279       .  A
O13        Co435   1.984       .  S
O14          C27   1.275       .  A
O14        Co436   1.977       .  S
O15          C28   1.287       .  A
O15         Co23   1.981       .  S
O16          C29   1.307       .  A
O16         Co24   2.063       .  S
O17          C29   1.267       .  A
O17         Co22   1.954       .  S
O18          C28   1.278       .  A
O18         Co21   1.990       .  S
O19          C26   1.305       .  A
O19         Co24   2.057       .  S
O20          C27   1.295       .  A
O20         Co23   2.033       .  S
Co21        O420   2.003   1_554  S
Co21        O427   1.984   1_554  S
Co21         O25   1.884       .  S
Co22        O419   2.033       .  S
Co22        O428   1.977       .  S
Co22        O439   1.876       .  S
Co23         O25   1.877       .  S
Co24        O439   1.888       .  S
O25        Co436   1.876       .  S
O25        Co438   1.888   1_554  S
C26         C349   1.503       .  S
C27         C356   1.496       .  S
C28         C366   1.467       .  S
C29         C339   1.505       .  S
O30          C38   1.274       .  A
O30         Co50   1.995       .  S
O31          C39   1.263       .  A
O31         Co51   1.943       .  S
O32          C40   1.289       .  A
O32        Co466   2.024       .  S
O33          C41   1.282       .  A
O33        Co467   2.039   1_554  S
O34          C40   1.278       .  A
O34         Co51   2.021       .  S
O35          C41   1.264       .  A
O35         Co50   1.955       .  S
O36          C39   1.283       .  A
O36         Co53   2.051       .  S
O37          C38   1.295       .  A
O37         Co52   2.048       .  S
C38         C326   1.517       .  S
C39         C296   1.490       .  S
C40         C316   1.496       .  S
C41         C309   1.486       .  S
O42          C55   1.271       .  A
O42         Co50   1.948       .  S
O43          C56   1.284       .  A
O43         Co51   1.990       .  S
O44          C57   1.275       .  A
O44         Co52   2.004       .  S
O45          C58   1.307       .  A
O45         Co53   2.073       .  S
O46          C58   1.296       .  A
O46         Co51   2.047       .  S
O47          C57   1.267       .  A
O47         Co50   1.952       .  S
O48          C55   1.312       .  A
O48        Co467   2.107   1_554  S
O49          C56   1.278       .  A
O49        Co466   2.023       .  S
Co50         O54   1.917   1_554  S
Co51        O468   1.944       .  S
Co52        O446   2.024   1_554  S
Co52        O463   2.023   1_554  S
Co52         O54   2.041   1_554  S
Co53        O447   2.039       .  S
Co53        O462   2.107       .  S
Co53        O468   2.029       .  S
O54        Co465   1.944       .  S
O54        Co467   2.029       .  S
C55         C256   1.475       .  S
C56         C286   1.502       .  S
C57         C266   1.477       .  S
C58         C279   1.509       .  S
O59          C67   1.272       .  A
O59         Co79   1.978       .  S
O60          C68   1.285       .  A
O60         Co80   2.026       .  S
O61          C69   1.282       .  A
O61        Co909   2.004       .  S
O62          C70   1.275       .  A
O62         Co82   1.989   1_545  S
O63          C69   1.290       .  A
O63         Co80   1.923       .  S
O64          C70   1.277       .  A
O64         Co79   1.978       .  S
O65          C68   1.273       .  A
O65        Co910   1.987       .  S
O66          C67   1.272       .  A
O66         Co81   2.010   1_545  S
C67         C246   1.486       .  S
C68         C216   1.487       .  S
C69         C226   1.464       .  S
C70         C239   1.457       .  S
O71          C84   1.273       .  A
O71         Co79   1.958       .  S
O72          C85   1.276       .  A
O72         Co80   2.031       .  S
O73          C86   1.283       .  A
O73         Co81   2.007   1_545  S
O74          C87   1.290       .  A
O74        Co910   1.996       .  S
O75          C87   1.302       .  A
O75         Co80   2.074       .  S
O76          C86   1.272       .  A
O76         Co79   1.958       .  S
O77          C84   1.296       .  A
O77         Co82   2.026   1_545  S
O78          C85   1.275       .  A
O78        Co909   1.996       .  S
Co79         O83   1.891   1_545  S
Co80        O911   1.890       .  S
Co81        O889   2.004       .  S
Co81        O906   1.996       .  S
Co81         O83   2.020       .  S
Co82        O893   1.987       .  S
Co82        O902   1.996       .  S
Co82         O83   1.912       .  S
O83        Co908   1.890       .  S
C84         C269   1.465       .  S
C85         C359   1.498       .  S
C86         C369   1.483       .  S
C87         C259   1.486       .  S
O88          C96   1.290       .  A
O88        Co108   2.116   1_545  S
O89          C97   1.275       .  A
O89        Co937   2.005       .  S
O90          C98   1.292       .  A
O90        Co110   2.041       .  S
O91          C99   1.282       .  A
O91        Co111   2.006       .  S
O92          C98   1.262       .  A
O92        Co109   1.980       .  S
O93          C99   1.276       .  A
O93        Co936   1.991       .  S
O94          C97   1.265       .  A
O94        Co111   1.951       .  S
O95          C96   1.278       .  A
O95        Co110   1.918       .  S
C96         C206   1.492       .  S
C97         C176   1.467       .  S
C98         C196   1.506       .  S
C99         C189   1.469       .  S
O100        C113   1.293       .  A
O100       Co936   2.046       .  S
O101        C114   1.294       .  A
O101       Co109   2.034       .  S
O102        C115   1.292       .  A
O102       Co110   2.128       .  S
O103        C116   1.281       .  A
O103       Co111   2.023       .  S
O104        C116   1.284       .  A
O104       Co937   2.007       .  S
O105        C115   1.287       .  A
O105       Co108   1.940   1_545  S
O106        C113   1.255       .  A
O106       Co111   1.960       .  S
O107        C114   1.266       .  A
O107       Co110   1.971       .  S
Co108       O921   1.991       .  S
Co108       O928   2.046       .  S
Co108       O112   1.977       .  S
Co109       O917   2.005   1_545  S
Co109       O932   2.007   1_545  S
Co109       O112   2.028   1_545  S
Co110       O112   1.953   1_545  S
Co111       O940   2.003       .  S
O112       Co939   2.003       .  S
C113        C336   1.498       .  S
C114        C289   1.494       .  S
C115        C346   1.502       .  S
C116        C276   1.489       .  S
O117        C125   1.279       .  A
O117       Co137   1.983       .  S
O118        C126   1.288       .  A
O118       Co138   2.035       .  S
O119        C127   1.283       .  A
O119      Co1795   2.070       .  S
O120        C128   1.274       .  A
O120      Co1796   1.994   1_455  S
O121        C127   1.280       .  A
O121       Co138   2.010       .  S
O122        C128   1.284       .  A
O122       Co137   1.996       .  S
O123        C126   1.269       .  A
O123       Co140   1.983       .  S
O124        C125   1.306       .  A
O124       Co139   2.076   1_455  S
C125        C406   1.481       .  S
C126        C319   1.499       .  S
C127        C329   1.511       .  S
C128        C396   1.473       .  S
O129        C142   1.264       .  A
O129       Co137   1.979       .  S
O130        C143   1.303       .  A
O130       Co138   2.092       .  S
O131        C144   1.274       .  A
O131       Co139   2.008   1_455  S
O132        C145   1.282       .  A
O132       Co140   2.023       .  S
O133        C145   1.263       .  A
O133       Co138   1.986       .  S
O134        C144   1.268       .  A
O134       Co137   2.003       .  S
O135        C142   1.278       .  A
O135      Co1796   2.009   1_455  S
O136        C143   1.279       .  A
O136      Co1795   1.885       .  S
Co137      O1797   2.085   1_455  S
Co138       O141   2.116       .  S
Co139      O1775   2.070       .  S
Co139      O1792   1.885       .  S
Co139      O1797   1.889       .  S
Co140      O1776   1.994       .  S
Co140      O1791   2.009       .  S
Co140       O141   2.038       .  S
O141      Co1793   2.085       .  S
O141      Co1795   1.889       .  S
C142        C209   1.477       .  S
C143        C236   1.463       .  S
C144        C249   1.498       .  S
C145        C199   1.497       .  S
O146        C154   1.268       .  A
O146       Co166   1.989       .  S
O147        C155   1.274       .  A
O147      Co1823   2.004       .  S
O148        C156   1.274       .  A
O148       Co168   1.989       .  S
O149        C157   1.271       .  A
O149       Co169   1.988       .  S
O150        C156   1.262       .  A
O150       Co167   1.989   1_455  S
O151        C157   1.264       .  A
O151      Co1822   1.993       .  S
O152        C155   1.276       .  A
O152       Co169   1.991       .  S
O153        C154   1.275       .  A
O153       Co168   1.994       .  S
C154        C386   1.490       .  S
C155        C299   1.474       .  S
C156        C379   1.490       .  S
C157        C306   1.478       .  S
O158        C171   1.273       .  A
O158      Co1822   1.985       .  S
O159        C172   1.282       .  A
O159       Co167   1.995   1_455  S
O160        C173   1.273       .  A
O160       Co168   1.978       .  S
O161        C174   1.265       .  A
O161       Co169   1.973       .  S
O162        C174   1.267       .  A
O162      Co1823   1.964       .  S
O163        C173   1.279       .  A
O163       Co166   1.972       .  S
O164        C171   1.280       .  A
O164       Co169   2.030       .  S
O165        C172   1.281       .  A
O165       Co168   2.018       .  S
Co166      O1807   1.993   1_455  S
Co166      O1814   1.985   1_455  S
Co166       O170   2.088   1_455  S
Co167      O1803   2.004       .  S
Co167      O1818   1.964       .  S
Co167       O170   2.083       .  S
Co168       O170   1.971   1_455  S
Co169      O1826   2.046       .  S
O170      Co1825   2.046       .  S
C171        C219   1.476       .  S
C172        C186   1.486       .  S
C173        C229   1.446       .  S
C174        C179   1.448       .  S
C175        C176   1.408       .  A
C175        C180   1.387       .  A
C175        H182   1.079       .  S
C176        C177   1.413       .  A
C177        C178   1.387       .  A
C177       Br184   1.924       .  S
C178        C179   1.401       .  A
C178        H183   1.084       .  S
C179        C180   1.399       .  A
C180       Br181   1.921       .  S
C185        C186   1.409       .  A
C185        C190   1.389       .  A
C185        H192   1.083       .  S
C186        C187   1.410       .  A
C187        C188   1.406       .  A
C187       Br194   1.915       .  S
C188        C189   1.405       .  A
C188        H193   1.078       .  S
C189        C190   1.401       .  A
C190       Br191   1.916       .  S
C195        C196   1.395       .  A
C195        C200   1.406       .  A
C195        H202   1.083       .  S
C196        C197   1.437       .  A
C197        C198   1.404       .  A
C197       Br204   1.930       .  S
C198        C199   1.394       .  A
C198        H203   1.084       .  S
C199        C200   1.422       .  A
C200       Br201   1.897       .  S
C205        C206   1.417       .  A
C205        C210   1.397       .  A
C205        H212   1.083       .  S
C206        C207   1.406       .  A
C207        C208   1.403       .  A
C207       Br214   1.917       .  S
C208        C209   1.412       .  A
C208        H213   1.081       .  S
C209        C210   1.400       .  A
C210       Br211   1.921       .  S
C215        C216   1.406       .  A
C215        C220   1.404       .  A
C215        H222   1.083       .  S
C216        C217   1.423       .  A
C217        C218   1.397       .  A
C217       Br224   1.927       .  S
C218        C219   1.398       .  A
C218        H223   1.084       .  S
C219        C220   1.404       .  A
C220       Br221   1.912       .  S
C225        C226   1.418       .  A
C225        C230   1.375       .  A
C225        H232   1.083       .  S
C226        C227   1.399       .  A
C227        C228   1.390       .  A
C227       Br234   1.918       .  S
C228        C229   1.412       .  A
C228        H233   1.081       .  S
C229        C230   1.392       .  A
C230       Br231   1.926       .  S
C235        C236   1.407       .  A
C235        C240   1.390       .  A
C235        H242   1.084       .  S
C236        C237   1.405       .  A
C237        C238   1.392       .  A
C237       Br244   1.920       .  S
C238        C239   1.404       .  A
C238        H243   1.076       .  S
C239        C240   1.403       .  A
C240       Br241   1.922       .  S
C245        C246   1.408       .  A
C245        C250   1.402       .  A
C245        H252   1.083       .  S
C246        C247   1.408       .  A
C247        C248   1.403       .  A
C247       Br254   1.919       .  S
C248        C249   1.415       .  A
C248        H253   1.083       .  S
C249        C250   1.411       .  A
C250       Br251   1.917       .  S
C255        C256   1.401       .  A
C255        C260   1.396       .  A
C255        H262   1.080       .  S
C256        C257   1.404       .  A
C257        C258   1.407       .  A
C257       Br264   1.922       .  S
C258        C259   1.405       .  A
C258        H263   1.074       .  S
C259        C260   1.408       .  A
C260       Br261   1.917       .  S
C265        C266   1.408       .  A
C265        C270   1.390       .  A
C265        H272   1.084       .  S
C266        C267   1.402       .  A
C267        C268   1.401       .  A
C267       Br274   1.918       .  S
C268        C269   1.412       .  A
C268        H273   1.075       .  S
C269        C270   1.402       .  A
C270       Br271   1.917       .  S
C275        C276   1.403       .  A
C275        C280   1.405       .  A
C275        H282   1.085       .  S
C276        C277   1.402       .  A
C277        C278   1.410       .  A
C277       Br284   1.909       .  S
C278        C279   1.401       .  A
C278        H283   1.073       .  S
C279        C280   1.419       .  A
C280       Br281   1.910       .  S
C285        C286   1.402       .  A
C285        C290   1.409       .  A
C285        H292   1.083       .  S
C286        C287   1.426       .  A
C287        C288   1.397       .  A
C287       Br294   1.908       .  S
C288        C289   1.390       .  A
C288        H293   1.084       .  S
C289        C290   1.429       .  A
C290       Br291   1.926       .  S
C295        C296   1.414       .  A
C295        C300   1.404       .  A
C295        H302   1.083       .  S
C296        C297   1.411       .  A
C297        C298   1.393       .  A
C297       Br304   1.922       .  S
C298        C299   1.396       .  A
C298        H303   1.066       .  S
C299        C300   1.403       .  A
C300       Br301   1.916       .  S
C305        C306   1.400       .  A
C305        C310   1.400       .  A
C305        H312   1.084       .  S
C306        C307   1.414       .  A
C307        C308   1.391       .  A
C307       Br314   1.910       .  S
C308        C309   1.399       .  A
C308        H313   1.083       .  S
C309        C310   1.421       .  A
C310       Br311   1.926       .  S
C315        C316   1.408       .  A
C315        C320   1.415       .  A
C315        H322   1.067       .  S
C316        C317   1.404       .  A
C317        C318   1.397       .  A
C317       Br324   1.909       .  S
C318        C319   1.413       .  A
C318        H323   1.084       .  S
C319        C320   1.409       .  A
C320       Br321   1.915       .  S
C325        C326   1.419       .  A
C325        C330   1.403       .  A
C325        H332   1.074       .  S
C326        C327   1.409       .  A
C327        C328   1.415       .  A
C327       Br334   1.916       .  S
C328        C329   1.423       .  A
C328        H333   1.082       .  S
C329        C330   1.404       .  A
C330       Br331   1.920       .  S
C335        C336   1.393       .  A
C335        C340   1.405       .  A
C335        H342   1.084       .  S
C336        C337   1.433       .  A
C337        C338   1.402       .  A
C337       Br344   1.918       .  S
C338        C339   1.390       .  A
C338        H343   1.083       .  S
C339        C340   1.441       .  A
C340       Br341   1.934       .  S
C345        C346   1.414       .  A
C345        C350   1.410       .  A
C345        H352   1.079       .  S
C346        C347   1.406       .  A
C347        C348   1.411       .  A
C347       Br354   1.915       .  S
C348        C349   1.419       .  A
C348        H353   1.084       .  S
C349        C350   1.404       .  A
C350       Br351   1.916       .  S
C355        C356   1.414       .  A
C355        C360   1.401       .  A
C355        H362   1.073       .  S
C356        C357   1.404       .  A
C357        C358   1.403       .  A
C357       Br364   1.918       .  S
C358        C359   1.420       .  A
C358        H363   1.082       .  S
C359        C360   1.407       .  A
C360       Br361   1.922       .  S
C365        C366   1.414       .  A
C365        C370   1.405       .  A
C365        H372   1.078       .  S
C366        C367   1.395       .  A
C367        C368   1.381       .  A
C367       Br374   1.925       .  S
C368        C369   1.414       .  A
C368        H373   1.078       .  S
C369        C370   1.406       .  A
C370       Br371   1.918       .  S
C375        C376   1.389       .  A
C375        C380   1.394       .  A
C375        H382   1.083       .  S
C376        C377   1.432       .  A
C377        C378   1.400       .  A
C377       Br384   1.931       .  S
C378        C379   1.396       .  A
C378        H383   1.084       .  S
C379        C380   1.430       .  A
C380       Br381   1.930       .  S
C385        C386   1.415       .  A
C385        C390   1.392       .  A
C385        H392   1.082       .  S
C386        C387   1.403       .  A
C387        C388   1.404       .  A
C387       Br394   1.922       .  S
C388        C389   1.418       .  A
C388        H393   1.083       .  S
C389        C390   1.396       .  A
C390       Br391   1.921       .  S
C395        C396   1.409       .  A
C395        C400   1.401       .  A
C395        H402   1.078   1_455  S
C396        C397   1.400       .  A
C397        C398   1.394       .  A
C397       Br404   1.923       .  S
C398        C399   1.415       .  A
C398        H403   1.078       .  S
C399        C400   1.406       .  A
C400       Br401   1.917       .  S
C405        C406   1.405       .  A
C405        C410   1.389       .  A
C405        H412   1.084       .  S
C406        C407   1.411       .  A
C407        C408   1.414       .  A
C407       Br414   1.921       .  S
C408        C409   1.410       .  A
C408        H413   1.082       .  S
C409        C410   1.401       .  A
C410       Br411   1.913       .  S
O415        C423   1.285       .  A
O415       Co435   2.000       .  S
O416        C424   1.301       .  A
O416       Co436   2.034   1_556  S
O417        C425   1.272       .  A
O417       Co437   1.955       .  S
O418        C426   1.279       .  A
O418       Co438   1.987       .  S
O419        C425   1.300       .  A
O420        C426   1.287       .  A
O421        C424   1.271       .  A
O421       Co438   1.962       .  S
O422        C423   1.282       .  A
O422       Co437   2.014       .  S
C423        C823   1.478       .  S
C424        C790   1.489       .  S
C425        C803   1.476       .  S
C426        C813   1.492       .  S
O427        C440   1.279       .  A
O428        C441   1.275       .  A
O429        C442   1.287       .  A
O429       Co437   1.981       .  S
O430        C443   1.307       .  A
O430       Co438   2.063       .  S
O431        C443   1.267       .  A
O431       Co436   1.954   1_556  S
O432        C442   1.278       .  A
O432       Co435   1.990       .  S
O433        C440   1.305       .  A
O433       Co438   2.057       .  S
O434        C441   1.295       .  A
O434       Co437   2.033       .  S
Co435       O439   1.884       .  S
Co437       O439   1.877       .  S
C440        C763   1.503       .  S
C441        C770   1.496       .  S
C442        C780   1.467       .  S
C443        C753   1.505       .  S
O444        C452   1.274       .  A
O444       Co464   1.995       .  S
O445        C453   1.263       .  A
O445       Co465   1.943       .  S
O446        C454   1.289       .  A
O447        C455   1.282       .  A
O448        C454   1.278       .  A
O448       Co465   2.021       .  S
O449        C455   1.264       .  A
O449       Co464   1.955       .  S
O450        C453   1.283       .  A
O450       Co467   2.051       .  S
O451        C452   1.295       .  A
O451       Co466   2.048       .  S
C452        C740   1.517       .  S
C453        C710   1.490       .  S
C454        C730   1.496       .  S
C455        C723   1.486       .  S
O456        C469   1.271       .  A
O456       Co464   1.948       .  S
O457        C470   1.284       .  A
O457       Co465   1.990       .  S
O458        C471   1.275       .  A
O458       Co466   2.004       .  S
O459        C472   1.307       .  A
O459       Co467   2.073       .  S
O460        C472   1.296       .  A
O460       Co465   2.047       .  S
O461        C471   1.267       .  A
O461       Co464   1.952       .  S
O462        C469   1.312       .  A
O463        C470   1.278       .  A
Co464       O468   1.917       .  S
Co466       O468   2.041       .  S
C469        C670   1.475       .  S
C470        C700   1.502       .  S
C471        C680   1.477       .  S
C472        C693   1.509       .  S
O473        C481   1.272       .  A
O473       Co493   1.978       .  S
O474        C482   1.285       .  A
O474       Co494   2.026       .  S
O475        C483   1.282       .  A
O475      Co1323   2.004       .  S
O476        C484   1.275       .  A
O476       Co496   1.989   1_545  S
O477        C483   1.290       .  A
O477       Co494   1.923       .  S
O478        C484   1.277       .  A
O478       Co493   1.978       .  S
O479        C482   1.273       .  A
O479      Co1324   1.987       .  S
O480        C481   1.272       .  A
O480       Co495   2.010   1_545  S
C481        C660   1.486       .  S
C482        C630   1.487       .  S
C483        C640   1.464       .  S
C484        C653   1.457       .  S
O485        C498   1.273       .  A
O485       Co493   1.958       .  S
O486        C499   1.276       .  A
O486       Co494   2.031       .  S
O487        C500   1.283       .  A
O487       Co495   2.007   1_545  S
O488        C501   1.290       .  A
O488      Co1324   1.996       .  S
O489        C501   1.302       .  A
O489       Co494   2.074       .  S
O490        C500   1.272       .  A
O490       Co493   1.958       .  S
O491        C498   1.296       .  A
O491       Co496   2.026   1_545  S
O492        C499   1.275       .  A
O492      Co1323   1.996       .  S
Co493       O497   1.891   1_545  S
Co494      O1325   1.890       .  S
Co495      O1303   2.004       .  S
Co495      O1320   1.996       .  S
Co495       O497   2.020       .  S
Co496      O1307   1.987       .  S
Co496      O1316   1.996       .  S
Co496       O497   1.912       .  S
O497      Co1322   1.890       .  S
C498        C683   1.465       .  S
C499        C773   1.498       .  S
C500        C783   1.483       .  S
C501        C673   1.486       .  S
O502        C510   1.290       .  A
O502       Co522   2.116   1_545  S
O503        C511   1.275       .  A
O503      Co1351   2.005       .  S
O504        C512   1.292       .  A
O504       Co524   2.041       .  S
O505        C513   1.282       .  A
O505       Co525   2.006       .  S
O506        C512   1.262       .  A
O506       Co523   1.980       .  S
O507        C513   1.276       .  A
O507      Co1350   1.991       .  S
O508        C511   1.265       .  A
O508       Co525   1.951       .  S
O509        C510   1.278       .  A
O509       Co524   1.918       .  S
C510        C620   1.492       .  S
C511        C590   1.467       .  S
C512        C610   1.506       .  S
C513        C603   1.469       .  S
O514        C527   1.293       .  A
O514      Co1350   2.046       .  S
O515        C528   1.294       .  A
O515       Co523   2.034       .  S
O516        C529   1.292       .  A
O516       Co524   2.128       .  S
O517        C530   1.281       .  A
O517       Co525   2.023       .  S
O518        C530   1.284       .  A
O518      Co1351   2.007       .  S
O519        C529   1.287       .  A
O519       Co522   1.940   1_545  S
O520        C527   1.255       .  A
O520       Co525   1.960       .  S
O521        C528   1.266       .  A
O521       Co524   1.971       .  S
Co522      O1335   1.991       .  S
Co522      O1342   2.046       .  S
Co522       O526   1.977       .  S
Co523      O1331   2.005   1_545  S
Co523      O1346   2.007   1_545  S
Co523       O526   2.028   1_545  S
Co524       O526   1.953   1_545  S
Co525      O1354   2.003       .  S
O526      Co1353   2.003       .  S
C527        C750   1.498       .  S
C528        C703   1.494       .  S
C529        C760   1.502       .  S
C530        C690   1.489       .  S
O531        C539   1.279       .  A
O531       Co551   1.983       .  S
O532        C540   1.288       .  A
O532       Co552   2.035       .  S
O533        C541   1.283       .  A
O533      Co2209   2.070       .  S
O534        C542   1.274       .  A
O534      Co2210   1.994   1_455  S
O535        C541   1.280       .  A
O535       Co552   2.010       .  S
O536        C542   1.284       .  A
O536       Co551   1.996       .  S
O537        C540   1.269       .  A
O537       Co554   1.983       .  S
O538        C539   1.306       .  A
O538       Co553   2.076   1_455  S
C539        C820   1.481       .  S
C540        C733   1.499       .  S
C541        C743   1.511       .  S
C542        C810   1.473       .  S
O543        C556   1.264       .  A
O543       Co551   1.979       .  S
O544        C557   1.303       .  A
O544       Co552   2.092       .  S
O545        C558   1.274       .  A
O545       Co553   2.008   1_455  S
O546        C559   1.282       .  A
O546       Co554   2.023       .  S
O547        C559   1.263       .  A
O547       Co552   1.986       .  S
O548        C558   1.268       .  A
O548       Co551   2.003       .  S
O549        C556   1.278       .  A
O549      Co2210   2.009   1_455  S
O550        C557   1.279       .  A
O550      Co2209   1.885       .  S
Co551      O2211   2.085   1_455  S
Co552       O555   2.116       .  S
Co553      O2189   2.070       .  S
Co553      O2206   1.885       .  S
Co553      O2211   1.889       .  S
Co554      O2190   1.994       .  S
Co554      O2205   2.009       .  S
Co554       O555   2.038       .  S
O555      Co2207   2.085       .  S
O555      Co2209   1.889       .  S
C556        C623   1.477       .  S
C557        C650   1.463       .  S
C558        C663   1.498       .  S
C559        C613   1.497       .  S
O560        C568   1.268       .  A
O560       Co580   1.989       .  S
O561        C569   1.274       .  A
O561      Co2237   2.004       .  S
O562        C570   1.274       .  A
O562       Co582   1.989       .  S
O563        C571   1.271       .  A
O563       Co583   1.988       .  S
O564        C570   1.262       .  A
O564       Co581   1.989   1_455  S
O565        C571   1.264       .  A
O565      Co2236   1.993       .  S
O566        C569   1.276       .  A
O566       Co583   1.991       .  S
O567        C568   1.275       .  A
O567       Co582   1.994       .  S
C568        C800   1.490       .  S
C569        C713   1.474       .  S
C570        C793   1.490       .  S
C571        C720   1.478       .  S
O572        C585   1.273       .  A
O572      Co2236   1.985       .  S
O573        C586   1.282       .  A
O573       Co581   1.995   1_455  S
O574        C587   1.273       .  A
O574       Co582   1.978       .  S
O575        C588   1.265       .  A
O575       Co583   1.973       .  S
O576        C588   1.267       .  A
O576      Co2237   1.964       .  S
O577        C587   1.279       .  A
O577       Co580   1.972       .  S
O578        C585   1.280       .  A
O578       Co583   2.030       .  S
O579        C586   1.281       .  A
O579       Co582   2.018       .  S
Co580      O2221   1.993   1_455  S
Co580      O2228   1.985   1_455  S
Co580       O584   2.088   1_455  S
Co581      O2217   2.004       .  S
Co581      O2232   1.964       .  S
Co581       O584   2.083       .  S
Co582       O584   1.971   1_455  S
Co583      O2240   2.046       .  S
O584      Co2239   2.046       .  S
C585        C633   1.476       .  S
C586        C600   1.486       .  S
C587        C643   1.446       .  S
C588        C593   1.448       .  S
C589        C590   1.408       .  A
C589        C594   1.387       .  A
C589        H596   1.079       .  S
C590        C591   1.413       .  A
C591        C592   1.387       .  A
C591       Br598   1.924       .  S
C592        C593   1.401       .  A
C592        H597   1.084       .  S
C593        C594   1.399       .  A
C594       Br595   1.921       .  S
C599        C600   1.409       .  A
C599        C604   1.389       .  A
C599        H606   1.083       .  S
C600        C601   1.410       .  A
C601        C602   1.406       .  A
C601       Br608   1.915       .  S
C602        C603   1.405       .  A
C602        H607   1.078       .  S
C603        C604   1.401       .  A
C604       Br605   1.916       .  S
C609        C610   1.395       .  A
C609        C614   1.406       .  A
C609        H616   1.083       .  S
C610        C611   1.437       .  A
C611        C612   1.404       .  A
C611       Br618   1.930       .  S
C612        C613   1.394       .  A
C612        H617   1.084       .  S
C613        C614   1.422       .  A
C614       Br615   1.897       .  S
C619        C620   1.417       .  A
C619        C624   1.397       .  A
C619        H626   1.083       .  S
C620        C621   1.406       .  A
C621        C622   1.403       .  A
C621       Br628   1.917       .  S
C622        C623   1.412       .  A
C622        H627   1.081       .  S
C623        C624   1.400       .  A
C624       Br625   1.921       .  S
C629        C630   1.406       .  A
C629        C634   1.404       .  A
C629        H636   1.083       .  S
C630        C631   1.423       .  A
C631        C632   1.397       .  A
C631       Br638   1.927       .  S
C632        C633   1.398       .  A
C632        H637   1.084       .  S
C633        C634   1.404       .  A
C634       Br635   1.912       .  S
C639        C640   1.418       .  A
C639        C644   1.375       .  A
C639        H646   1.083       .  S
C640        C641   1.399       .  A
C641        C642   1.390       .  A
C641       Br648   1.918       .  S
C642        C643   1.412       .  A
C642        H647   1.081       .  S
C643        C644   1.392       .  A
C644       Br645   1.926       .  S
C649        C650   1.407       .  A
C649        C654   1.390       .  A
C649        H656   1.084       .  S
C650        C651   1.405       .  A
C651        C652   1.392       .  A
C651       Br658   1.920       .  S
C652        C653   1.404       .  A
C652        H657   1.076       .  S
C653        C654   1.403       .  A
C654       Br655   1.922       .  S
C659        C660   1.408       .  A
C659        C664   1.402       .  A
C659        H666   1.083       .  S
C660        C661   1.408       .  A
C661        C662   1.403       .  A
C661       Br668   1.919       .  S
C662        C663   1.415       .  A
C662        H667   1.083       .  S
C663        C664   1.411       .  A
C664       Br665   1.917       .  S
C669        C670   1.401       .  A
C669        C674   1.396       .  A
C669        H676   1.080       .  S
C670        C671   1.404       .  A
C671        C672   1.407       .  A
C671       Br678   1.922       .  S
C672        C673   1.405       .  A
C672        H677   1.074       .  S
C673        C674   1.408       .  A
C674       Br675   1.917       .  S
C679        C680   1.408       .  A
C679        C684   1.390       .  A
C679        H686   1.084       .  S
C680        C681   1.402       .  A
C681        C682   1.401       .  A
C681       Br688   1.918       .  S
C682        C683   1.412       .  A
C682        H687   1.075       .  S
C683        C684   1.402       .  A
C684       Br685   1.917       .  S
C689        C690   1.403       .  A
C689        C694   1.405       .  A
C689        H696   1.085       .  S
C690        C691   1.402       .  A
C691        C692   1.410       .  A
C691       Br698   1.909       .  S
C692        C693   1.401       .  A
C692        H697   1.073       .  S
C693        C694   1.419       .  A
C694       Br695   1.910       .  S
C699        C700   1.402       .  A
C699        C704   1.409       .  A
C699        H706   1.083       .  S
C700        C701   1.426       .  A
C701        C702   1.397       .  A
C701       Br708   1.908       .  S
C702        C703   1.390       .  A
C702        H707   1.084       .  S
C703        C704   1.429       .  A
C704       Br705   1.926       .  S
C709        C710   1.414       .  A
C709        C714   1.404       .  A
C709        H716   1.083       .  S
C710        C711   1.411       .  A
C711        C712   1.393       .  A
C711       Br718   1.922       .  S
C712        C713   1.396       .  A
C712        H717   1.066       .  S
C713        C714   1.403       .  A
C714       Br715   1.916       .  S
C719        C720   1.400       .  A
C719        C724   1.400       .  A
C719        H726   1.084       .  S
C720        C721   1.414       .  A
C721        C722   1.391       .  A
C721       Br728   1.910       .  S
C722        C723   1.399       .  A
C722        H727   1.083       .  S
C723        C724   1.421       .  A
C724       Br725   1.926       .  S
C729        C730   1.408       .  A
C729        C734   1.415       .  A
C729        H736   1.067       .  S
C730        C731   1.404       .  A
C731        C732   1.397       .  A
C731       Br738   1.909       .  S
C732        C733   1.413       .  A
C732        H737   1.084       .  S
C733        C734   1.409       .  A
C734       Br735   1.915       .  S
C739        C740   1.419       .  A
C739        C744   1.403       .  A
C739        H746   1.074       .  S
C740        C741   1.409       .  A
C741        C742   1.415       .  A
C741       Br748   1.916       .  S
C742        C743   1.423       .  A
C742        H747   1.082       .  S
C743        C744   1.404       .  A
C744       Br745   1.920       .  S
C749        C750   1.393       .  A
C749        C754   1.405       .  A
C749        H756   1.084       .  S
C750        C751   1.433       .  A
C751        C752   1.402       .  A
C751       Br758   1.918       .  S
C752        C753   1.390       .  A
C752        H757   1.083       .  S
C753        C754   1.441       .  A
C754       Br755   1.934       .  S
C759        C760   1.414       .  A
C759        C764   1.410       .  A
C759        H766   1.079       .  S
C760        C761   1.406       .  A
C761        C762   1.411       .  A
C761       Br768   1.915       .  S
C762        C763   1.419       .  A
C762        H767   1.084       .  S
C763        C764   1.404       .  A
C764       Br765   1.916       .  S
C769        C770   1.414       .  A
C769        C774   1.401       .  A
C769        H776   1.073       .  S
C770        C771   1.404       .  A
C771        C772   1.403       .  A
C771       Br778   1.918       .  S
C772        C773   1.420       .  A
C772        H777   1.082       .  S
C773        C774   1.407       .  A
C774       Br775   1.922       .  S
C779        C780   1.414       .  A
C779        C784   1.405       .  A
C779        H786   1.078       .  S
C780        C781   1.395       .  A
C781        C782   1.381       .  A
C781       Br788   1.925       .  S
C782        C783   1.414       .  A
C782        H787   1.078       .  S
C783        C784   1.406       .  A
C784       Br785   1.918       .  S
C789        C790   1.389       .  A
C789        C794   1.394       .  A
C789        H796   1.083       .  S
C790        C791   1.432       .  A
C791        C792   1.400       .  A
C791       Br798   1.931       .  S
C792        C793   1.396       .  A
C792        H797   1.084       .  S
C793        C794   1.430       .  A
C794       Br795   1.930       .  S
C799        C800   1.415       .  A
C799        C804   1.392       .  A
C799        H806   1.082       .  S
C800        C801   1.403       .  A
C801        C802   1.404       .  A
C801       Br808   1.922       .  S
C802        C803   1.418       .  A
C802        H807   1.083       .  S
C803        C804   1.396       .  A
C804       Br805   1.921       .  S
C809        C810   1.409       .  A
C809        C814   1.401       .  A
C809        H816   1.078   1_455  S
C810        C811   1.400       .  A
C811        C812   1.394       .  A
C811       Br818   1.923       .  S
C812        C813   1.415       .  A
C812        H817   1.078       .  S
C813        C814   1.406       .  A
C814       Br815   1.917       .  S
C819        C820   1.405       .  A
C819        C824   1.389       .  A
C819        H826   1.084       .  S
C820        C821   1.411       .  A
C821        C822   1.414       .  A
C821       Br828   1.921       .  S
C822        C823   1.410       .  A
C822        H827   1.082       .  S
C823        C824   1.401       .  A
C824       Br825   1.913       .  S
O829        C837   1.285       .  A
O829       Co849   2.000       .  S
O830        C838   1.301       .  A
O830       Co850   2.034       .  S
O831        C839   1.272       .  A
O831       Co851   1.955       .  S
O832        C840   1.279       .  A
O832       Co852   1.987       .  S
O833        C839   1.300       .  A
O833      Co1264   2.033       .  S
O834        C840   1.287       .  A
O834      Co1263   2.003       .  S
O835        C838   1.271       .  A
O835       Co852   1.962       .  S
O836        C837   1.282       .  A
O836       Co851   2.014       .  S
C837       C1237   1.478       .  S
C838       C1204   1.489       .  S
C839       C1217   1.476       .  S
C840       C1227   1.492       .  S
O841        C854   1.279       .  A
O841      Co1263   1.984       .  S
O842        C855   1.275       .  A
O842      Co1264   1.977       .  S
O843        C856   1.287       .  A
O843       Co851   1.981       .  S
O844        C857   1.307       .  A
O844       Co852   2.063       .  S
O845        C857   1.267       .  A
O845       Co850   1.954       .  S
O846        C856   1.278       .  A
O846       Co849   1.990       .  S
O847        C854   1.305       .  A
O847       Co852   2.057       .  S
O848        C855   1.295       .  A
O848       Co851   2.033       .  S
Co849      O1248   2.003   1_554  S
Co849      O1255   1.984   1_554  S
Co849       O853   1.884       .  S
Co850      O1247   2.033       .  S
Co850      O1256   1.977       .  S
Co850      O1267   1.876       .  S
Co851       O853   1.877       .  S
Co852      O1267   1.888       .  S
O853      Co1264   1.876       .  S
O853      Co1266   1.888   1_554  S
C854       C1177   1.503       .  S
C855       C1184   1.496       .  S
C856       C1194   1.467       .  S
C857       C1167   1.505       .  S
O858        C866   1.274       .  A
O858       Co878   1.995       .  S
O859        C867   1.263       .  A
O859       Co879   1.943       .  S
O860        C868   1.289       .  A
O860      Co1294   2.024       .  S
O861        C869   1.282       .  A
O861      Co1295   2.039   1_554  S
O862        C868   1.278       .  A
O862       Co879   2.021       .  S
O863        C869   1.264       .  A
O863       Co878   1.955       .  S
O864        C867   1.283       .  A
O864       Co881   2.051       .  S
O865        C866   1.295       .  A
O865       Co880   2.048       .  S
C866       C1154   1.517       .  S
C867       C1124   1.490       .  S
C868       C1144   1.496       .  S
C869       C1137   1.486       .  S
O870        C883   1.271       .  A
O870       Co878   1.948       .  S
O871        C884   1.284       .  A
O871       Co879   1.990       .  S
O872        C885   1.275       .  A
O872       Co880   2.004       .  S
O873        C886   1.307       .  A
O873       Co881   2.073       .  S
O874        C886   1.296       .  A
O874       Co879   2.047       .  S
O875        C885   1.267       .  A
O875       Co878   1.952       .  S
O876        C883   1.312       .  A
O876      Co1295   2.107   1_554  S
O877        C884   1.278       .  A
O877      Co1294   2.023       .  S
Co878       O882   1.917   1_554  S
Co879      O1296   1.944       .  S
Co880      O1274   2.024   1_554  S
Co880      O1291   2.023   1_554  S
Co880       O882   2.041   1_554  S
Co881      O1275   2.039       .  S
Co881      O1290   2.107       .  S
Co881      O1296   2.029       .  S
O882      Co1293   1.944       .  S
O882      Co1295   2.029       .  S
C883       C1084   1.475       .  S
C884       C1114   1.502       .  S
C885       C1094   1.477       .  S
C886       C1107   1.509       .  S
O887        C895   1.272       .  A
O887       Co907   1.978       .  S
O888        C896   1.285       .  A
O888       Co908   2.026       .  S
O889        C897   1.282       .  A
O890        C898   1.275       .  A
O890       Co910   1.989       .  S
O891        C897   1.290       .  A
O891       Co908   1.923       .  S
O892        C898   1.277       .  A
O892       Co907   1.978       .  S
O893        C896   1.273       .  A
O894        C895   1.272       .  A
O894       Co909   2.010       .  S
C895       C1074   1.486       .  S
C896       C1044   1.487       .  S
C897       C1054   1.464       .  S
C898       C1067   1.457       .  S
O899        C912   1.273       .  A
O899       Co907   1.958       .  S
O900        C913   1.276       .  A
O900       Co908   2.031       .  S
O901        C914   1.283       .  A
O901       Co909   2.007       .  S
O902        C915   1.290       .  A
O903        C915   1.302       .  A
O903       Co908   2.074       .  S
O904        C914   1.272       .  A
O904       Co907   1.958       .  S
O905        C912   1.296       .  A
O905       Co910   2.026       .  S
O906        C913   1.275       .  A
Co907       O911   1.891       .  S
Co909       O911   2.020       .  S
Co910       O911   1.912       .  S
C912       C1097   1.465       .  S
C913       C1187   1.498       .  S
C914       C1197   1.483       .  S
C915       C1087   1.486       .  S
O916        C924   1.290       .  A
O916       Co936   2.116       .  S
O917        C925   1.275       .  A
O918        C926   1.292       .  A
O918       Co938   2.041       .  S
O919        C927   1.282       .  A
O919       Co939   2.006       .  S
O920        C926   1.262       .  A
O920       Co937   1.980       .  S
O921        C927   1.276       .  A
O922        C925   1.265       .  A
O922       Co939   1.951       .  S
O923        C924   1.278       .  A
O923       Co938   1.918       .  S
C924       C1034   1.492       .  S
C925       C1004   1.467       .  S
C926       C1024   1.506       .  S
C927       C1017   1.469       .  S
O928        C941   1.293       .  A
O929        C942   1.294       .  A
O929       Co937   2.034       .  S
O930        C943   1.292       .  A
O930       Co938   2.128       .  S
O931        C944   1.281       .  A
O931       Co939   2.023       .  S
O932        C944   1.284       .  A
O933        C943   1.287       .  A
O933       Co936   1.940       .  S
O934        C941   1.255       .  A
O934       Co939   1.960       .  S
O935        C942   1.266       .  A
O935       Co938   1.971       .  S
Co936       O940   1.977       .  S
Co937       O940   2.028       .  S
Co938       O940   1.953       .  S
C941       C1164   1.498       .  S
C942       C1117   1.494       .  S
C943       C1174   1.502       .  S
C944       C1104   1.489       .  S
O945        C953   1.279       .  A
O945       Co965   1.983       .  S
O946        C954   1.288       .  A
O946       Co966   2.035       .  S
O947        C955   1.283       .  A
O947      Co2623   2.070       .  S
O948        C956   1.274       .  A
O948      Co2624   1.994   1_455  S
O949        C955   1.280       .  A
O949       Co966   2.010       .  S
O950        C956   1.284       .  A
O950       Co965   1.996       .  S
O951        C954   1.269       .  A
O951       Co968   1.983       .  S
O952        C953   1.306       .  A
O952       Co967   2.076   1_455  S
C953       C1234   1.481       .  S
C954       C1147   1.499       .  S
C955       C1157   1.511       .  S
C956       C1224   1.473       .  S
O957        C970   1.264       .  A
O957       Co965   1.979       .  S
O958        C971   1.303       .  A
O958       Co966   2.092       .  S
O959        C972   1.274       .  A
O959       Co967   2.008   1_455  S
O960        C973   1.282       .  A
O960       Co968   2.023       .  S
O961        C973   1.263       .  A
O961       Co966   1.986       .  S
O962        C972   1.268       .  A
O962       Co965   2.003       .  S
O963        C970   1.278       .  A
O963      Co2624   2.009   1_455  S
O964        C971   1.279       .  A
O964      Co2623   1.885       .  S
Co965      O2625   2.085   1_455  S
Co966       O969   2.116       .  S
Co967      O2603   2.070       .  S
Co967      O2620   1.885       .  S
Co967      O2625   1.889       .  S
Co968      O2604   1.994       .  S
Co968      O2619   2.009       .  S
Co968       O969   2.038       .  S
O969      Co2621   2.085       .  S
O969      Co2623   1.889       .  S
C970       C1037   1.477       .  S
C971       C1064   1.463       .  S
C972       C1077   1.498       .  S
C973       C1027   1.497       .  S
O974        C982   1.268       .  A
O974       Co994   1.989       .  S
O975        C983   1.274       .  A
O975      Co2651   2.004       .  S
O976        C984   1.274       .  A
O976       Co996   1.989       .  S
O977        C985   1.271       .  A
O977       Co997   1.988       .  S
O978        C984   1.262       .  A
O978       Co995   1.989   1_455  S
O979        C985   1.264       .  A
O979      Co2650   1.993       .  S
O980        C983   1.276       .  A
O980       Co997   1.991       .  S
O981        C982   1.275       .  A
O981       Co996   1.994       .  S
C982       C1214   1.490       .  S
C983       C1127   1.474       .  S
C984       C1207   1.490       .  S
C985       C1134   1.478       .  S
O986        C999   1.273       .  A
O986      Co2650   1.985       .  S
O987       C1000   1.282       .  A
O987       Co995   1.995   1_455  S
O988       C1001   1.273       .  A
O988       Co996   1.978       .  S
O989       C1002   1.265       .  A
O989       Co997   1.973       .  S
O990       C1002   1.267       .  A
O990      Co2651   1.964       .  S
O991       C1001   1.279       .  A
O991       Co994   1.972       .  S
O992        C999   1.280       .  A
O992       Co997   2.030       .  S
O993       C1000   1.281       .  A
O993       Co996   2.018       .  S
Co994      O2635   1.993   1_455  S
Co994      O2642   1.985   1_455  S
Co994       O998   2.088   1_455  S
Co995      O2631   2.004       .  S
Co995      O2646   1.964       .  S
Co995       O998   2.083       .  S
Co996       O998   1.971   1_455  S
Co997      O2654   2.046       .  S
O998      Co2653   2.046       .  S
C999       C1047   1.476       .  S
C1000      C1014   1.486       .  S
C1001      C1057   1.446       .  S
C1002      C1007   1.448       .  S
C1003      C1004   1.408       .  A
C1003      C1008   1.387       .  A
C1003      H1010   1.079       .  S
C1004      C1005   1.413       .  A
C1005      C1006   1.387       .  A
C1005     Br1012   1.924       .  S
C1006      C1007   1.401       .  A
C1006      H1011   1.084       .  S
C1007      C1008   1.399       .  A
C1008     Br1009   1.921       .  S
C1013      C1014   1.409       .  A
C1013      C1018   1.389       .  A
C1013      H1020   1.083       .  S
C1014      C1015   1.410       .  A
C1015      C1016   1.406       .  A
C1015     Br1022   1.915       .  S
C1016      C1017   1.405       .  A
C1016      H1021   1.078       .  S
C1017      C1018   1.401       .  A
C1018     Br1019   1.916       .  S
C1023      C1024   1.395       .  A
C1023      C1028   1.406       .  A
C1023      H1030   1.083       .  S
C1024      C1025   1.437       .  A
C1025      C1026   1.404       .  A
C1025     Br1032   1.930       .  S
C1026      C1027   1.394       .  A
C1026      H1031   1.084       .  S
C1027      C1028   1.422       .  A
C1028     Br1029   1.897       .  S
C1033      C1034   1.417       .  A
C1033      C1038   1.397       .  A
C1033      H1040   1.083       .  S
C1034      C1035   1.406       .  A
C1035      C1036   1.403       .  A
C1035     Br1042   1.917       .  S
C1036      C1037   1.412       .  A
C1036      H1041   1.081       .  S
C1037      C1038   1.400       .  A
C1038     Br1039   1.921       .  S
C1043      C1044   1.406       .  A
C1043      C1048   1.404       .  A
C1043      H1050   1.083       .  S
C1044      C1045   1.423       .  A
C1045      C1046   1.397       .  A
C1045     Br1052   1.927       .  S
C1046      C1047   1.398       .  A
C1046      H1051   1.084       .  S
C1047      C1048   1.404       .  A
C1048     Br1049   1.912       .  S
C1053      C1054   1.418       .  A
C1053      C1058   1.375       .  A
C1053      H1060   1.083       .  S
C1054      C1055   1.399       .  A
C1055      C1056   1.390       .  A
C1055     Br1062   1.918       .  S
C1056      C1057   1.412       .  A
C1056      H1061   1.081       .  S
C1057      C1058   1.392       .  A
C1058     Br1059   1.926       .  S
C1063      C1064   1.407       .  A
C1063      C1068   1.390       .  A
C1063      H1070   1.084       .  S
C1064      C1065   1.405       .  A
C1065      C1066   1.392       .  A
C1065     Br1072   1.920       .  S
C1066      C1067   1.404       .  A
C1066      H1071   1.076       .  S
C1067      C1068   1.403       .  A
C1068     Br1069   1.922       .  S
C1073      C1074   1.408       .  A
C1073      C1078   1.402       .  A
C1073      H1080   1.083       .  S
C1074      C1075   1.408       .  A
C1075      C1076   1.403       .  A
C1075     Br1082   1.919       .  S
C1076      C1077   1.415       .  A
C1076      H1081   1.083       .  S
C1077      C1078   1.411       .  A
C1078     Br1079   1.917       .  S
C1083      C1084   1.401       .  A
C1083      C1088   1.396       .  A
C1083      H1090   1.080       .  S
C1084      C1085   1.404       .  A
C1085      C1086   1.407       .  A
C1085     Br1092   1.922       .  S
C1086      C1087   1.405       .  A
C1086      H1091   1.074       .  S
C1087      C1088   1.408       .  A
C1088     Br1089   1.917       .  S
C1093      C1094   1.408       .  A
C1093      C1098   1.390       .  A
C1093      H1100   1.084       .  S
C1094      C1095   1.402       .  A
C1095      C1096   1.401       .  A
C1095     Br1102   1.918       .  S
C1096      C1097   1.412       .  A
C1096      H1101   1.075       .  S
C1097      C1098   1.402       .  A
C1098     Br1099   1.917       .  S
C1103      C1104   1.403       .  A
C1103      C1108   1.406       .  A
C1103      H1110   1.085       .  S
C1104      C1105   1.402       .  A
C1105      C1106   1.410       .  A
C1105     Br1112   1.909       .  S
C1106      C1107   1.401       .  A
C1106      H1111   1.072       .  S
C1107      C1108   1.419       .  A
C1108     Br1109   1.910       .  S
C1113      C1114   1.402       .  A
C1113      C1118   1.409       .  A
C1113      H1120   1.083       .  S
C1114      C1115   1.426       .  A
C1115      C1116   1.397       .  A
C1115     Br1122   1.908       .  S
C1116      C1117   1.390       .  A
C1116      H1121   1.084       .  S
C1117      C1118   1.429       .  A
C1118     Br1119   1.926       .  S
C1123      C1124   1.414       .  A
C1123      C1128   1.404       .  A
C1123      H1130   1.083       .  S
C1124      C1125   1.411       .  A
C1125      C1126   1.393       .  A
C1125     Br1132   1.922       .  S
C1126      C1127   1.396       .  A
C1126      H1131   1.066       .  S
C1127      C1128   1.403       .  A
C1128     Br1129   1.916       .  S
C1133      C1134   1.400       .  A
C1133      C1138   1.400       .  A
C1133      H1140   1.084       .  S
C1134      C1135   1.414       .  A
C1135      C1136   1.391       .  A
C1135     Br1142   1.910       .  S
C1136      C1137   1.399       .  A
C1136      H1141   1.083       .  S
C1137      C1138   1.421       .  A
C1138     Br1139   1.926       .  S
C1143      C1144   1.408       .  A
C1143      C1148   1.415       .  A
C1143      H1150   1.067       .  S
C1144      C1145   1.404       .  A
C1145      C1146   1.397       .  A
C1145     Br1152   1.909       .  S
C1146      C1147   1.413       .  A
C1146      H1151   1.084       .  S
C1147      C1148   1.409       .  A
C1148     Br1149   1.915       .  S
C1153      C1154   1.419       .  A
C1153      C1158   1.403       .  A
C1153      H1160   1.074       .  S
C1154      C1155   1.409       .  A
C1155      C1156   1.415       .  A
C1155     Br1162   1.916       .  S
C1156      C1157   1.423       .  A
C1156      H1161   1.082       .  S
C1157      C1158   1.404       .  A
C1158     Br1159   1.920       .  S
C1163      C1164   1.393       .  A
C1163      C1168   1.405       .  A
C1163      H1170   1.084       .  S
C1164      C1165   1.433       .  A
C1165      C1166   1.402       .  A
C1165     Br1172   1.918       .  S
C1166      C1167   1.390       .  A
C1166      H1171   1.083       .  S
C1167      C1168   1.441       .  A
C1168     Br1169   1.934       .  S
C1173      C1174   1.414       .  A
C1173      C1178   1.410       .  A
C1173      H1180   1.079       .  S
C1174      C1175   1.406       .  A
C1175      C1176   1.411       .  A
C1175     Br1182   1.915       .  S
C1176      C1177   1.419       .  A
C1176      H1181   1.084       .  S
C1177      C1178   1.404       .  A
C1178     Br1179   1.916       .  S
C1183      C1184   1.414       .  A
C1183      C1188   1.401       .  A
C1183      H1190   1.073       .  S
C1184      C1185   1.404       .  A
C1185      C1186   1.403       .  A
C1185     Br1192   1.918       .  S
C1186      C1187   1.420       .  A
C1186      H1191   1.082       .  S
C1187      C1188   1.407       .  A
C1188     Br1189   1.922       .  S
C1193      C1194   1.414       .  A
C1193      C1198   1.405       .  A
C1193      H1200   1.078       .  S
C1194      C1195   1.395       .  A
C1195      C1196   1.381       .  A
C1195     Br1202   1.925       .  S
C1196      C1197   1.414       .  A
C1196      H1201   1.078       .  S
C1197      C1198   1.406       .  A
C1198     Br1199   1.918       .  S
C1203      C1204   1.389       .  A
C1203      C1208   1.394       .  A
C1203      H1210   1.083       .  S
C1204      C1205   1.432       .  A
C1205      C1206   1.400       .  A
C1205     Br1212   1.931       .  S
C1206      C1207   1.396       .  A
C1206      H1211   1.084       .  S
C1207      C1208   1.430       .  A
C1208     Br1209   1.930       .  S
C1213      C1214   1.415       .  A
C1213      C1218   1.392       .  A
C1213      H1220   1.082       .  S
C1214      C1215   1.403       .  A
C1215      C1216   1.404       .  A
C1215     Br1222   1.922       .  S
C1216      C1217   1.418       .  A
C1216      H1221   1.083       .  S
C1217      C1218   1.396       .  A
C1218     Br1219   1.921       .  S
C1223      C1224   1.409       .  A
C1223      C1228   1.401       .  A
C1223      H1230   1.078   1_455  S
C1224      C1225   1.400       .  A
C1225      C1226   1.394       .  A
C1225     Br1232   1.923       .  S
C1226      C1227   1.415       .  A
C1226      H1231   1.078       .  S
C1227      C1228   1.406       .  A
C1228     Br1229   1.917       .  S
C1233      C1234   1.405       .  A
C1233      C1238   1.389       .  A
C1233      H1240   1.084       .  S
C1234      C1235   1.411       .  A
C1235      C1236   1.414       .  A
C1235     Br1242   1.921       .  S
C1236      C1237   1.410       .  A
C1236      H1241   1.082       .  S
C1237      C1238   1.401       .  A
C1238     Br1239   1.913       .  S
O1243      C1251   1.285       .  A
O1243     Co1263   2.000       .  S
O1244      C1252   1.301       .  A
O1244     Co1264   2.034   1_556  S
O1245      C1253   1.272       .  A
O1245     Co1265   1.955       .  S
O1246      C1254   1.279       .  A
O1246     Co1266   1.987       .  S
O1247      C1253   1.300       .  A
O1248      C1254   1.286       .  A
O1249      C1252   1.271       .  A
O1249     Co1266   1.962       .  S
O1250      C1251   1.282       .  A
O1250     Co1265   2.014       .  S
C1251      C1651   1.478       .  S
C1252      C1618   1.489       .  S
C1253      C1631   1.476       .  S
C1254      C1641   1.492       .  S
O1255      C1268   1.279       .  A
O1256      C1269   1.275       .  A
O1257      C1270   1.287       .  A
O1257     Co1265   1.981       .  S
O1258      C1271   1.307       .  A
O1258     Co1266   2.063       .  S
O1259      C1271   1.267       .  A
O1259     Co1264   1.954   1_556  S
O1260      C1270   1.278       .  A
O1260     Co1263   1.990       .  S
O1261      C1268   1.305       .  A
O1261     Co1266   2.057       .  S
O1262      C1269   1.295       .  A
O1262     Co1265   2.033       .  S
Co1263     O1267   1.884       .  S
Co1265     O1267   1.877       .  S
C1268      C1591   1.503       .  S
C1269      C1598   1.496       .  S
C1270      C1608   1.467       .  S
C1271      C1581   1.505       .  S
O1272      C1280   1.274       .  A
O1272     Co1292   1.995       .  S
O1273      C1281   1.263       .  A
O1273     Co1293   1.943       .  S
O1274      C1282   1.289       .  A
O1275      C1283   1.282       .  A
O1276      C1282   1.278       .  A
O1276     Co1293   2.021       .  S
O1277      C1283   1.264       .  A
O1277     Co1292   1.955       .  S
O1278      C1281   1.283       .  A
O1278     Co1295   2.051       .  S
O1279      C1280   1.295       .  A
O1279     Co1294   2.048       .  S
C1280      C1568   1.517       .  S
C1281      C1538   1.490       .  S
C1282      C1558   1.496       .  S
C1283      C1551   1.486       .  S
O1284      C1297   1.271       .  A
O1284     Co1292   1.948       .  S
O1285      C1298   1.284       .  A
O1285     Co1293   1.990       .  S
O1286      C1299   1.275       .  A
O1286     Co1294   2.004       .  S
O1287      C1300   1.307       .  A
O1287     Co1295   2.073       .  S
O1288      C1300   1.296       .  A
O1288     Co1293   2.047       .  S
O1289      C1299   1.267       .  A
O1289     Co1292   1.952       .  S
O1290      C1297   1.312       .  A
O1291      C1298   1.278       .  A
Co1292     O1296   1.917       .  S
Co1294     O1296   2.041       .  S
C1297      C1498   1.475       .  S
C1298      C1528   1.502       .  S
C1299      C1508   1.477       .  S
C1300      C1521   1.509       .  S
O1301      C1309   1.272       .  A
O1301     Co1321   1.978       .  S
O1302      C1310   1.285       .  A
O1302     Co1322   2.026       .  S
O1303      C1311   1.282       .  A
O1304      C1312   1.275       .  A
O1304     Co1324   1.989       .  S
O1305      C1311   1.290       .  A
O1305     Co1322   1.923       .  S
O1306      C1312   1.277       .  A
O1306     Co1321   1.978       .  S
O1307      C1310   1.273       .  A
O1308      C1309   1.272       .  A
O1308     Co1323   2.010       .  S
C1309      C1488   1.486       .  S
C1310      C1458   1.487       .  S
C1311      C1468   1.464       .  S
C1312      C1481   1.457       .  S
O1313      C1326   1.273       .  A
O1313     Co1321   1.958       .  S
O1314      C1327   1.276       .  A
O1314     Co1322   2.031       .  S
O1315      C1328   1.283       .  A
O1315     Co1323   2.007       .  S
O1316      C1329   1.290       .  A
O1317      C1329   1.302       .  A
O1317     Co1322   2.074       .  S
O1318      C1328   1.272       .  A
O1318     Co1321   1.958       .  S
O1319      C1326   1.296       .  A
O1319     Co1324   2.026       .  S
O1320      C1327   1.275       .  A
Co1321     O1325   1.891       .  S
Co1323     O1325   2.020       .  S
Co1324     O1325   1.912       .  S
C1326      C1511   1.465       .  S
C1327      C1601   1.498       .  S
C1328      C1611   1.483       .  S
C1329      C1501   1.486       .  S
O1330      C1338   1.290       .  A
O1330     Co1350   2.116       .  S
O1331      C1339   1.275       .  A
O1332      C1340   1.292       .  A
O1332     Co1352   2.041       .  S
O1333      C1341   1.282       .  A
O1333     Co1353   2.006       .  S
O1334      C1340   1.262       .  A
O1334     Co1351   1.980       .  S
O1335      C1341   1.276       .  A
O1336      C1339   1.265       .  A
O1336     Co1353   1.951       .  S
O1337      C1338   1.278       .  A
O1337     Co1352   1.918       .  S
C1338      C1448   1.492       .  S
C1339      C1418   1.467       .  S
C1340      C1438   1.506       .  S
C1341      C1431   1.469       .  S
O1342      C1355   1.293       .  A
O1343      C1356   1.294       .  A
O1343     Co1351   2.034       .  S
O1344      C1357   1.292       .  A
O1344     Co1352   2.128       .  S
O1345      C1358   1.281       .  A
O1345     Co1353   2.023       .  S
O1346      C1358   1.284       .  A
O1347      C1357   1.287       .  A
O1347     Co1350   1.940       .  S
O1348      C1355   1.255       .  A
O1348     Co1353   1.960       .  S
O1349      C1356   1.266       .  A
O1349     Co1352   1.971       .  S
Co1350     O1354   1.977       .  S
Co1351     O1354   2.028       .  S
Co1352     O1354   1.953       .  S
C1355      C1578   1.498       .  S
C1356      C1531   1.494       .  S
C1357      C1588   1.502       .  S
C1358      C1518   1.489       .  S
O1359      C1367   1.279       .  A
O1359     Co1379   1.983       .  S
O1360      C1368   1.288       .  A
O1360     Co1380   2.035       .  S
O1361      C1369   1.283       .  A
O1361     Co3037   2.070       .  S
O1362      C1370   1.274       .  A
O1362     Co3038   1.994   1_455  S
O1363      C1369   1.280       .  A
O1363     Co1380   2.010       .  S
O1364      C1370   1.284       .  A
O1364     Co1379   1.996       .  S
O1365      C1368   1.269       .  A
O1365     Co1382   1.983       .  S
O1366      C1367   1.306       .  A
O1366     Co1381   2.076   1_455  S
C1367      C1648   1.481       .  S
C1368      C1561   1.499       .  S
C1369      C1571   1.511       .  S
C1370      C1638   1.473       .  S
O1371      C1384   1.264       .  A
O1371     Co1379   1.979       .  S
O1372      C1385   1.303       .  A
O1372     Co1380   2.092       .  S
O1373      C1386   1.274       .  A
O1373     Co1381   2.008   1_455  S
O1374      C1387   1.282       .  A
O1374     Co1382   2.023       .  S
O1375      C1387   1.263       .  A
O1375     Co1380   1.986       .  S
O1376      C1386   1.268       .  A
O1376     Co1379   2.003       .  S
O1377      C1384   1.278       .  A
O1377     Co3038   2.009   1_455  S
O1378      C1385   1.279       .  A
O1378     Co3037   1.885       .  S
Co1379     O3039   2.085   1_455  S
Co1380     O1383   2.116       .  S
Co1381     O3017   2.070       .  S
Co1381     O3034   1.885       .  S
Co1381     O3039   1.889       .  S
Co1382     O3018   1.994       .  S
Co1382     O3033   2.009       .  S
Co1382     O1383   2.038       .  S
O1383     Co3035   2.085       .  S
O1383     Co3037   1.889       .  S
C1384      C1451   1.477       .  S
C1385      C1478   1.463       .  S
C1386      C1491   1.498       .  S
C1387      C1441   1.497       .  S
O1388      C1396   1.268       .  A
O1388     Co1408   1.989       .  S
O1389      C1397   1.274       .  A
O1389     Co3065   2.004       .  S
O1390      C1398   1.274       .  A
O1390     Co1410   1.989       .  S
O1391      C1399   1.271       .  A
O1391     Co1411   1.988       .  S
O1392      C1398   1.262       .  A
O1392     Co1409   1.989   1_455  S
O1393      C1399   1.264       .  A
O1393     Co3064   1.993       .  S
O1394      C1397   1.276       .  A
O1394     Co1411   1.991       .  S
O1395      C1396   1.275       .  A
O1395     Co1410   1.994       .  S
C1396      C1628   1.490       .  S
C1397      C1541   1.474       .  S
C1398      C1621   1.490       .  S
C1399      C1548   1.478       .  S
O1400      C1413   1.273       .  A
O1400     Co3064   1.985       .  S
O1401      C1414   1.282       .  A
O1401     Co1409   1.995   1_455  S
O1402      C1415   1.273       .  A
O1402     Co1410   1.978       .  S
O1403      C1416   1.265       .  A
O1403     Co1411   1.973       .  S
O1404      C1416   1.267       .  A
O1404     Co3065   1.964       .  S
O1405      C1415   1.279       .  A
O1405     Co1408   1.972       .  S
O1406      C1413   1.280       .  A
O1406     Co1411   2.030       .  S
O1407      C1414   1.281       .  A
O1407     Co1410   2.018       .  S
Co1408     O3049   1.993   1_455  S
Co1408     O3056   1.985   1_455  S
Co1408     O1412   2.088   1_455  S
Co1409     O3045   2.004       .  S
Co1409     O3060   1.964       .  S
Co1409     O1412   2.083       .  S
Co1410     O1412   1.971   1_455  S
Co1411     O3068   2.046       .  S
O1412     Co3067   2.046       .  S
C1413      C1461   1.476       .  S
C1414      C1428   1.486       .  S
C1415      C1471   1.446       .  S
C1416      C1421   1.448       .  S
C1417      C1418   1.408       .  A
C1417      C1422   1.387       .  A
C1417      H1424   1.079       .  S
C1418      C1419   1.413       .  A
C1419      C1420   1.387       .  A
C1419     Br1426   1.924       .  S
C1420      C1421   1.401       .  A
C1420      H1425   1.084       .  S
C1421      C1422   1.399       .  A
C1422     Br1423   1.921       .  S
C1427      C1428   1.409       .  A
C1427      C1432   1.389       .  A
C1427      H1434   1.083       .  S
C1428      C1429   1.410       .  A
C1429      C1430   1.406       .  A
C1429     Br1436   1.915       .  S
C1430      C1431   1.405       .  A
C1430      H1435   1.078       .  S
C1431      C1432   1.401       .  A
C1432     Br1433   1.916       .  S
C1437      C1438   1.395       .  A
C1437      C1442   1.406       .  A
C1437      H1444   1.083       .  S
C1438      C1439   1.437       .  A
C1439      C1440   1.404       .  A
C1439     Br1446   1.930       .  S
C1440      C1441   1.394       .  A
C1440      H1445   1.084       .  S
C1441      C1442   1.422       .  A
C1442     Br1443   1.897       .  S
C1447      C1448   1.417       .  A
C1447      C1452   1.397       .  A
C1447      H1454   1.083       .  S
C1448      C1449   1.406       .  A
C1449      C1450   1.403       .  A
C1449     Br1456   1.917       .  S
C1450      C1451   1.412       .  A
C1450      H1455   1.081       .  S
C1451      C1452   1.400       .  A
C1452     Br1453   1.921       .  S
C1457      C1458   1.406       .  A
C1457      C1462   1.404       .  A
C1457      H1464   1.083       .  S
C1458      C1459   1.423       .  A
C1459      C1460   1.397       .  A
C1459     Br1466   1.927       .  S
C1460      C1461   1.398       .  A
C1460      H1465   1.084       .  S
C1461      C1462   1.404       .  A
C1462     Br1463   1.912       .  S
C1467      C1468   1.418       .  A
C1467      C1472   1.375       .  A
C1467      H1474   1.083       .  S
C1468      C1469   1.399       .  A
C1469      C1470   1.390       .  A
C1469     Br1476   1.918       .  S
C1470      C1471   1.412       .  A
C1470      H1475   1.081       .  S
C1471      C1472   1.392       .  A
C1472     Br1473   1.926       .  S
C1477      C1478   1.407       .  A
C1477      C1482   1.390       .  A
C1477      H1484   1.084       .  S
C1478      C1479   1.405       .  A
C1479      C1480   1.392       .  A
C1479     Br1486   1.920       .  S
C1480      C1481   1.404       .  A
C1480      H1485   1.076       .  S
C1481      C1482   1.403       .  A
C1482     Br1483   1.922       .  S
C1487      C1488   1.408       .  A
C1487      C1492   1.402       .  A
C1487      H1494   1.083       .  S
C1488      C1489   1.408       .  A
C1489      C1490   1.403       .  A
C1489     Br1496   1.919       .  S
C1490      C1491   1.415       .  A
C1490      H1495   1.083       .  S
C1491      C1492   1.411       .  A
C1492     Br1493   1.917       .  S
C1497      C1498   1.401       .  A
C1497      C1502   1.396       .  A
C1497      H1504   1.080       .  S
C1498      C1499   1.404       .  A
C1499      C1500   1.407       .  A
C1499     Br1506   1.922       .  S
C1500      C1501   1.405       .  A
C1500      H1505   1.074       .  S
C1501      C1502   1.408       .  A
C1502     Br1503   1.917       .  S
C1507      C1508   1.408       .  A
C1507      C1512   1.390       .  A
C1507      H1514   1.084       .  S
C1508      C1509   1.402       .  A
C1509      C1510   1.401       .  A
C1509     Br1516   1.918       .  S
C1510      C1511   1.412       .  A
C1510      H1515   1.075       .  S
C1511      C1512   1.402       .  A
C1512     Br1513   1.917       .  S
C1517      C1518   1.403       .  A
C1517      C1522   1.405       .  A
C1517      H1524   1.085       .  S
C1518      C1519   1.402       .  A
C1519      C1520   1.410       .  A
C1519     Br1526   1.909       .  S
C1520      C1521   1.401       .  A
C1520      H1525   1.073       .  S
C1521      C1522   1.419       .  A
C1522     Br1523   1.910       .  S
C1527      C1528   1.402       .  A
C1527      C1532   1.409       .  A
C1527      H1534   1.083       .  S
C1528      C1529   1.426       .  A
C1529      C1530   1.397       .  A
C1529     Br1536   1.908       .  S
C1530      C1531   1.390       .  A
C1530      H1535   1.084       .  S
C1531      C1532   1.429       .  A
C1532     Br1533   1.926       .  S
C1537      C1538   1.414       .  A
C1537      C1542   1.404       .  A
C1537      H1544   1.083       .  S
C1538      C1539   1.411       .  A
C1539      C1540   1.393       .  A
C1539     Br1546   1.922       .  S
C1540      C1541   1.396       .  A
C1540      H1545   1.066       .  S
C1541      C1542   1.403       .  A
C1542     Br1543   1.916       .  S
C1547      C1548   1.400       .  A
C1547      C1552   1.400       .  A
C1547      H1554   1.084       .  S
C1548      C1549   1.414       .  A
C1549      C1550   1.391       .  A
C1549     Br1556   1.910       .  S
C1550      C1551   1.399       .  A
C1550      H1555   1.083       .  S
C1551      C1552   1.421       .  A
C1552     Br1553   1.926       .  S
C1557      C1558   1.408       .  A
C1557      C1562   1.415       .  A
C1557      H1564   1.067       .  S
C1558      C1559   1.404       .  A
C1559      C1560   1.397       .  A
C1559     Br1566   1.909       .  S
C1560      C1561   1.413       .  A
C1560      H1565   1.084       .  S
C1561      C1562   1.409       .  A
C1562     Br1563   1.915       .  S
C1567      C1568   1.419       .  A
C1567      C1572   1.403       .  A
C1567      H1574   1.074       .  S
C1568      C1569   1.409       .  A
C1569      C1570   1.415       .  A
C1569     Br1576   1.916       .  S
C1570      C1571   1.423       .  A
C1570      H1575   1.082       .  S
C1571      C1572   1.404       .  A
C1572     Br1573   1.920       .  S
C1577      C1578   1.393       .  A
C1577      C1582   1.405       .  A
C1577      H1584   1.084       .  S
C1578      C1579   1.433       .  A
C1579      C1580   1.402       .  A
C1579     Br1586   1.918       .  S
C1580      C1581   1.390       .  A
C1580      H1585   1.083       .  S
C1581      C1582   1.441       .  A
C1582     Br1583   1.934       .  S
C1587      C1588   1.414       .  A
C1587      C1592   1.410       .  A
C1587      H1594   1.079       .  S
C1588      C1589   1.406       .  A
C1589      C1590   1.411       .  A
C1589     Br1596   1.915       .  S
C1590      C1591   1.419       .  A
C1590      H1595   1.084       .  S
C1591      C1592   1.404       .  A
C1592     Br1593   1.916       .  S
C1597      C1598   1.414       .  A
C1597      C1602   1.401       .  A
C1597      H1604   1.073       .  S
C1598      C1599   1.404       .  A
C1599      C1600   1.403       .  A
C1599     Br1606   1.918       .  S
C1600      C1601   1.420       .  A
C1600      H1605   1.082       .  S
C1601      C1602   1.407       .  A
C1602     Br1603   1.922       .  S
C1607      C1608   1.414       .  A
C1607      C1612   1.405       .  A
C1607      H1614   1.078       .  S
C1608      C1609   1.395       .  A
C1609      C1610   1.381       .  A
C1609     Br1616   1.925       .  S
C1610      C1611   1.414       .  A
C1610      H1615   1.078       .  S
C1611      C1612   1.406       .  A
C1612     Br1613   1.918       .  S
C1617      C1618   1.389       .  A
C1617      C1622   1.394       .  A
C1617      H1624   1.083       .  S
C1618      C1619   1.432       .  A
C1619      C1620   1.400       .  A
C1619     Br1626   1.931       .  S
C1620      C1621   1.396       .  A
C1620      H1625   1.084       .  S
C1621      C1622   1.430       .  A
C1622     Br1623   1.930       .  S
C1627      C1628   1.415       .  A
C1627      C1632   1.392       .  A
C1627      H1634   1.082       .  S
C1628      C1629   1.403       .  A
C1629      C1630   1.404       .  A
C1629     Br1636   1.922       .  S
C1630      C1631   1.418       .  A
C1630      H1635   1.083       .  S
C1631      C1632   1.396       .  A
C1632     Br1633   1.921       .  S
C1637      C1638   1.409       .  A
C1637      C1642   1.401       .  A
C1637      H1644   1.078   1_455  S
C1638      C1639   1.400       .  A
C1639      C1640   1.394       .  A
C1639     Br1646   1.923       .  S
C1640      C1641   1.415       .  A
C1640      H1645   1.078       .  S
C1641      C1642   1.406       .  A
C1642     Br1643   1.917       .  S
C1647      C1648   1.405       .  A
C1647      C1652   1.389       .  A
C1647      H1654   1.084       .  S
C1648      C1649   1.411       .  A
C1649      C1650   1.414       .  A
C1649     Br1656   1.921       .  S
C1650      C1651   1.410       .  A
C1650      H1655   1.082       .  S
C1651      C1652   1.401       .  A
C1652     Br1653   1.913       .  S
O1657      C1665   1.285       .  A
O1657     Co1677   2.000       .  S
O1658      C1666   1.301       .  A
O1658     Co1678   2.034       .  S
O1659      C1667   1.272       .  A
O1659     Co1679   1.955       .  S
O1660      C1668   1.279       .  A
O1660     Co1680   1.987       .  S
O1661      C1667   1.300       .  A
O1661     Co2092   2.033       .  S
O1662      C1668   1.286       .  A
O1662     Co2091   2.003       .  S
O1663      C1666   1.271       .  A
O1663     Co1680   1.962       .  S
O1664      C1665   1.282       .  A
O1664     Co1679   2.014       .  S
C1665      C2065   1.478       .  S
C1666      C2032   1.489       .  S
C1667      C2045   1.476       .  S
C1668      C2055   1.492       .  S
O1669      C1682   1.279       .  A
O1669     Co2091   1.984       .  S
O1670      C1683   1.275       .  A
O1670     Co2092   1.977       .  S
O1671      C1684   1.287       .  A
O1671     Co1679   1.981       .  S
O1672      C1685   1.307       .  A
O1672     Co1680   2.063       .  S
O1673      C1685   1.267       .  A
O1673     Co1678   1.954       .  S
O1674      C1684   1.278       .  A
O1674     Co1677   1.990       .  S
O1675      C1682   1.305       .  A
O1675     Co1680   2.057       .  S
O1676      C1683   1.295       .  A
O1676     Co1679   2.033       .  S
Co1677     O2076   2.003   1_554  S
Co1677     O2083   1.984   1_554  S
Co1677     O1681   1.884       .  S
Co1678     O2075   2.033       .  S
Co1678     O2084   1.977       .  S
Co1678     O2095   1.876       .  S
Co1679     O1681   1.877       .  S
Co1680     O2095   1.888       .  S
O1681     Co2092   1.876       .  S
O1681     Co2094   1.888   1_554  S
C1682      C2005   1.503       .  S
C1683      C2012   1.496       .  S
C1684      C2022   1.467       .  S
C1685      C1995   1.505       .  S
O1686      C1694   1.274       .  A
O1686     Co1706   1.995       .  S
O1687      C1695   1.263       .  A
O1687     Co1707   1.943       .  S
O1688      C1696   1.289       .  A
O1688     Co2122   2.024       .  S
O1689      C1697   1.282       .  A
O1689     Co2123   2.039   1_554  S
O1690      C1696   1.278       .  A
O1690     Co1707   2.021       .  S
O1691      C1697   1.264       .  A
O1691     Co1706   1.955       .  S
O1692      C1695   1.283       .  A
O1692     Co1709   2.051       .  S
O1693      C1694   1.295       .  A
O1693     Co1708   2.048       .  S
C1694      C1982   1.517       .  S
C1695      C1952   1.490       .  S
C1696      C1972   1.496       .  S
C1697      C1965   1.486       .  S
O1698      C1711   1.271       .  A
O1698     Co1706   1.948       .  S
O1699      C1712   1.284       .  A
O1699     Co1707   1.990       .  S
O1700      C1713   1.275       .  A
O1700     Co1708   2.004       .  S
O1701      C1714   1.307       .  A
O1701     Co1709   2.073       .  S
O1702      C1714   1.296       .  A
O1702     Co1707   2.047       .  S
O1703      C1713   1.267       .  A
O1703     Co1706   1.952       .  S
O1704      C1711   1.312       .  A
O1704     Co2123   2.107   1_554  S
O1705      C1712   1.278       .  A
O1705     Co2122   2.023       .  S
Co1706     O1710   1.917   1_554  S
Co1707     O2124   1.944       .  S
Co1708     O2102   2.024   1_554  S
Co1708     O2119   2.023   1_554  S
Co1708     O1710   2.041   1_554  S
Co1709     O2103   2.039       .  S
Co1709     O2118   2.107       .  S
Co1709     O2124   2.029       .  S
O1710     Co2121   1.944       .  S
O1710     Co2123   2.029       .  S
C1711      C1912   1.475       .  S
C1712      C1942   1.502       .  S
C1713      C1922   1.477       .  S
C1714      C1935   1.509       .  S
O1715      C1723   1.272       .  A
O1715     Co1735   1.978       .  S
O1716      C1724   1.285       .  A
O1716     Co1736   2.026       .  S
O1717      C1725   1.282       .  A
O1717     Co2565   2.004       .  S
O1718      C1726   1.275       .  A
O1718     Co1738   1.989   1_545  S
O1719      C1725   1.290       .  A
O1719     Co1736   1.923       .  S
O1720      C1726   1.277       .  A
O1720     Co1735   1.978       .  S
O1721      C1724   1.273       .  A
O1721     Co2566   1.987       .  S
O1722      C1723   1.272       .  A
O1722     Co1737   2.010   1_545  S
C1723      C1902   1.486       .  S
C1724      C1872   1.487       .  S
C1725      C1882   1.464       .  S
C1726      C1895   1.457       .  S
O1727      C1740   1.273       .  A
O1727     Co1735   1.958       .  S
O1728      C1741   1.276       .  A
O1728     Co1736   2.031       .  S
O1729      C1742   1.283       .  A
O1729     Co1737   2.007   1_545  S
O1730      C1743   1.290       .  A
O1730     Co2566   1.996       .  S
O1731      C1743   1.302       .  A
O1731     Co1736   2.074       .  S
O1732      C1742   1.272       .  A
O1732     Co1735   1.958       .  S
O1733      C1740   1.296       .  A
O1733     Co1738   2.026   1_545  S
O1734      C1741   1.275       .  A
O1734     Co2565   1.996       .  S
Co1735     O1739   1.891   1_545  S
Co1736     O2567   1.890       .  S
Co1737     O2545   2.004       .  S
Co1737     O2562   1.996       .  S
Co1737     O1739   2.020       .  S
Co1738     O2549   1.987       .  S
Co1738     O2558   1.996       .  S
Co1738     O1739   1.912       .  S
O1739     Co2564   1.890       .  S
C1740      C1925   1.465       .  S
C1741      C2015   1.498       .  S
C1742      C2025   1.483       .  S
C1743      C1915   1.486       .  S
O1744      C1752   1.290       .  A
O1744     Co1764   2.116   1_545  S
O1745      C1753   1.275       .  A
O1745     Co2593   2.005       .  S
O1746      C1754   1.292       .  A
O1746     Co1766   2.041       .  S
O1747      C1755   1.282       .  A
O1747     Co1767   2.006       .  S
O1748      C1754   1.262       .  A
O1748     Co1765   1.980       .  S
O1749      C1755   1.276       .  A
O1749     Co2592   1.991       .  S
O1750      C1753   1.265       .  A
O1750     Co1767   1.951       .  S
O1751      C1752   1.278       .  A
O1751     Co1766   1.918       .  S
C1752      C1862   1.492       .  S
C1753      C1832   1.467       .  S
C1754      C1852   1.506       .  S
C1755      C1845   1.469       .  S
O1756      C1769   1.293       .  A
O1756     Co2592   2.046       .  S
O1757      C1770   1.294       .  A
O1757     Co1765   2.034       .  S
O1758      C1771   1.292       .  A
O1758     Co1766   2.128       .  S
O1759      C1772   1.281       .  A
O1759     Co1767   2.023       .  S
O1760      C1772   1.284       .  A
O1760     Co2593   2.007       .  S
O1761      C1771   1.287       .  A
O1761     Co1764   1.940   1_545  S
O1762      C1769   1.255       .  A
O1762     Co1767   1.960       .  S
O1763      C1770   1.266       .  A
O1763     Co1766   1.971       .  S
Co1764     O2577   1.991       .  S
Co1764     O2584   2.046       .  S
Co1764     O1768   1.977       .  S
Co1765     O2573   2.005   1_545  S
Co1765     O2588   2.007   1_545  S
Co1765     O1768   2.028   1_545  S
Co1766     O1768   1.953   1_545  S
Co1767     O2596   2.003       .  S
O1768     Co2595   2.003       .  S
C1769      C1992   1.498       .  S
C1770      C1945   1.494       .  S
C1771      C2002   1.502       .  S
C1772      C1932   1.489       .  S
O1773      C1781   1.279       .  A
O1773     Co1793   1.983       .  S
O1774      C1782   1.288       .  A
O1774     Co1794   2.035       .  S
O1775      C1783   1.283       .  A
O1776      C1784   1.274       .  A
O1777      C1783   1.280       .  A
O1777     Co1794   2.010       .  S
O1778      C1784   1.284       .  A
O1778     Co1793   1.996       .  S
O1779      C1782   1.269       .  A
O1779     Co1796   1.983       .  S
O1780      C1781   1.306       .  A
O1780     Co1795   2.076       .  S
C1781      C2062   1.481       .  S
C1782      C1975   1.499       .  S
C1783      C1985   1.511       .  S
C1784      C2052   1.473       .  S
O1785      C1798   1.264       .  A
O1785     Co1793   1.979       .  S
O1786      C1799   1.303       .  A
O1786     Co1794   2.092       .  S
O1787      C1800   1.274       .  A
O1787     Co1795   2.008       .  S
O1788      C1801   1.282       .  A
O1788     Co1796   2.023       .  S
O1789      C1801   1.263       .  A
O1789     Co1794   1.986       .  S
O1790      C1800   1.268       .  A
O1790     Co1793   2.003       .  S
O1791      C1798   1.278       .  A
O1792      C1799   1.279       .  A
Co1794     O1797   2.116       .  S
Co1796     O1797   2.038       .  S
C1798      C1865   1.477       .  S
C1799      C1892   1.463       .  S
C1800      C1905   1.498       .  S
C1801      C1855   1.497       .  S
O1802      C1810   1.268       .  A
O1802     Co1822   1.989       .  S
O1803      C1811   1.274       .  A
O1804      C1812   1.274       .  A
O1804     Co1824   1.989       .  S
O1805      C1813   1.271       .  A
O1805     Co1825   1.988       .  S
O1806      C1812   1.262       .  A
O1806     Co1823   1.989       .  S
O1807      C1813   1.264       .  A
O1808      C1811   1.276       .  A
O1808     Co1825   1.991       .  S
O1809      C1810   1.275       .  A
O1809     Co1824   1.994       .  S
C1810      C2042   1.490       .  S
C1811      C1955   1.474       .  S
C1812      C2035   1.490       .  S
C1813      C1962   1.478       .  S
O1814      C1827   1.273       .  A
O1815      C1828   1.282       .  A
O1815     Co1823   1.995       .  S
O1816      C1829   1.273       .  A
O1816     Co1824   1.978       .  S
O1817      C1830   1.265       .  A
O1817     Co1825   1.973       .  S
O1818      C1830   1.267       .  A
O1819      C1829   1.279       .  A
O1819     Co1822   1.972       .  S
O1820      C1827   1.280       .  A
O1820     Co1825   2.030       .  S
O1821      C1828   1.281       .  A
O1821     Co1824   2.018       .  S
Co1822     O1826   2.088       .  S
Co1823     O1826   2.083       .  S
Co1824     O1826   1.971       .  S
C1827      C1875   1.476       .  S
C1828      C1842   1.486       .  S
C1829      C1885   1.446       .  S
C1830      C1835   1.448       .  S
C1831      C1832   1.408       .  A
C1831      C1836   1.387       .  A
C1831      H1838   1.079       .  S
C1832      C1833   1.413       .  A
C1833      C1834   1.387       .  A
C1833     Br1840   1.924       .  S
C1834      C1835   1.401       .  A
C1834      H1839   1.084       .  S
C1835      C1836   1.399       .  A
C1836     Br1837   1.921       .  S
C1841      C1842   1.409       .  A
C1841      C1846   1.389       .  A
C1841      H1848   1.083       .  S
C1842      C1843   1.410       .  A
C1843      C1844   1.406       .  A
C1843     Br1850   1.915       .  S
C1844      C1845   1.405       .  A
C1844      H1849   1.078       .  S
C1845      C1846   1.401       .  A
C1846     Br1847   1.916       .  S
C1851      C1852   1.395       .  A
C1851      C1856   1.406       .  A
C1851      H1858   1.083       .  S
C1852      C1853   1.437       .  A
C1853      C1854   1.404       .  A
C1853     Br1860   1.930       .  S
C1854      C1855   1.394       .  A
C1854      H1859   1.084       .  S
C1855      C1856   1.422       .  A
C1856     Br1857   1.897       .  S
C1861      C1862   1.417       .  A
C1861      C1866   1.397       .  A
C1861      H1868   1.083       .  S
C1862      C1863   1.406       .  A
C1863      C1864   1.403       .  A
C1863     Br1870   1.917       .  S
C1864      C1865   1.412       .  A
C1864      H1869   1.081       .  S
C1865      C1866   1.400       .  A
C1866     Br1867   1.921       .  S
C1871      C1872   1.406       .  A
C1871      C1876   1.404       .  A
C1871      H1878   1.083       .  S
C1872      C1873   1.423       .  A
C1873      C1874   1.397       .  A
C1873     Br1880   1.927       .  S
C1874      C1875   1.398       .  A
C1874      H1879   1.084       .  S
C1875      C1876   1.404       .  A
C1876     Br1877   1.912       .  S
C1881      C1882   1.418       .  A
C1881      C1886   1.375       .  A
C1881      H1888   1.083       .  S
C1882      C1883   1.399       .  A
C1883      C1884   1.390       .  A
C1883     Br1890   1.918       .  S
C1884      C1885   1.412       .  A
C1884      H1889   1.081       .  S
C1885      C1886   1.392       .  A
C1886     Br1887   1.926       .  S
C1891      C1892   1.407       .  A
C1891      C1896   1.390       .  A
C1891      H1898   1.084       .  S
C1892      C1893   1.405       .  A
C1893      C1894   1.392       .  A
C1893     Br1900   1.920       .  S
C1894      C1895   1.404       .  A
C1894      H1899   1.076       .  S
C1895      C1896   1.403       .  A
C1896     Br1897   1.922       .  S
C1901      C1902   1.408       .  A
C1901      C1906   1.402       .  A
C1901      H1908   1.083       .  S
C1902      C1903   1.408       .  A
C1903      C1904   1.403       .  A
C1903     Br1910   1.919       .  S
C1904      C1905   1.415       .  A
C1904      H1909   1.083       .  S
C1905      C1906   1.411       .  A
C1906     Br1907   1.917       .  S
C1911      C1912   1.401       .  A
C1911      C1916   1.396       .  A
C1911      H1918   1.080       .  S
C1912      C1913   1.404       .  A
C1913      C1914   1.407       .  A
C1913     Br1920   1.922       .  S
C1914      C1915   1.405       .  A
C1914      H1919   1.074       .  S
C1915      C1916   1.408       .  A
C1916     Br1917   1.917       .  S
C1921      C1922   1.408       .  A
C1921      C1926   1.390       .  A
C1921      H1928   1.084       .  S
C1922      C1923   1.402       .  A
C1923      C1924   1.401       .  A
C1923     Br1930   1.918       .  S
C1924      C1925   1.412       .  A
C1924      H1929   1.075       .  S
C1925      C1926   1.402       .  A
C1926     Br1927   1.917       .  S
C1931      C1932   1.403       .  A
C1931      C1936   1.405       .  A
C1931      H1938   1.085       .  S
C1932      C1933   1.402       .  A
C1933      C1934   1.410       .  A
C1933     Br1940   1.909       .  S
C1934      C1935   1.401       .  A
C1934      H1939   1.074       .  S
C1935      C1936   1.419       .  A
C1936     Br1937   1.910       .  S
C1941      C1942   1.402       .  A
C1941      C1946   1.409       .  A
C1941      H1948   1.083       .  S
C1942      C1943   1.426       .  A
C1943      C1944   1.397       .  A
C1943     Br1950   1.908       .  S
C1944      C1945   1.390       .  A
C1944      H1949   1.084       .  S
C1945      C1946   1.429       .  A
C1946     Br1947   1.926       .  S
C1951      C1952   1.414       .  A
C1951      C1956   1.404       .  A
C1951      H1958   1.083       .  S
C1952      C1953   1.411       .  A
C1953      C1954   1.393       .  A
C1953     Br1960   1.922       .  S
C1954      C1955   1.396       .  A
C1954      H1959   1.066       .  S
C1955      C1956   1.403       .  A
C1956     Br1957   1.916       .  S
C1961      C1962   1.400       .  A
C1961      C1966   1.400       .  A
C1961      H1968   1.084       .  S
C1962      C1963   1.414       .  A
C1963      C1964   1.391       .  A
C1963     Br1970   1.910       .  S
C1964      C1965   1.399       .  A
C1964      H1969   1.083       .  S
C1965      C1966   1.421       .  A
C1966     Br1967   1.926       .  S
C1971      C1972   1.408       .  A
C1971      C1976   1.415       .  A
C1971      H1978   1.067       .  S
C1972      C1973   1.404       .  A
C1973      C1974   1.397       .  A
C1973     Br1980   1.909       .  S
C1974      C1975   1.413       .  A
C1974      H1979   1.084       .  S
C1975      C1976   1.409       .  A
C1976     Br1977   1.915       .  S
C1981      C1982   1.419       .  A
C1981      C1986   1.403       .  A
C1981      H1988   1.074       .  S
C1982      C1983   1.409       .  A
C1983      C1984   1.415       .  A
C1983     Br1990   1.916       .  S
C1984      C1985   1.423       .  A
C1984      H1989   1.082       .  S
C1985      C1986   1.404       .  A
C1986     Br1987   1.920       .  S
C1991      C1992   1.393       .  A
C1991      C1996   1.405       .  A
C1991      H1998   1.084       .  S
C1992      C1993   1.433       .  A
C1993      C1994   1.402       .  A
C1993     Br2000   1.918       .  S
C1994      C1995   1.390       .  A
C1994      H1999   1.083       .  S
C1995      C1996   1.441       .  A
C1996     Br1997   1.934       .  S
C2001      C2002   1.414       .  A
C2001      C2006   1.410       .  A
C2001      H2008   1.079       .  S
C2002      C2003   1.406       .  A
C2003      C2004   1.411       .  A
C2003     Br2010   1.915       .  S
C2004      C2005   1.419       .  A
C2004      H2009   1.084       .  S
C2005      C2006   1.404       .  A
C2006     Br2007   1.916       .  S
C2011      C2012   1.414       .  A
C2011      C2016   1.401       .  A
C2011      H2018   1.073       .  S
C2012      C2013   1.404       .  A
C2013      C2014   1.403       .  A
C2013     Br2020   1.918       .  S
C2014      C2015   1.420       .  A
C2014      H2019   1.082       .  S
C2015      C2016   1.407       .  A
C2016     Br2017   1.922       .  S
C2021      C2022   1.414       .  A
C2021      C2026   1.405       .  A
C2021      H2028   1.078       .  S
C2022      C2023   1.395       .  A
C2023      C2024   1.381       .  A
C2023     Br2030   1.925       .  S
C2024      C2025   1.414       .  A
C2024      H2029   1.078       .  S
C2025      C2026   1.406       .  A
C2026     Br2027   1.918       .  S
C2031      C2032   1.389       .  A
C2031      C2036   1.394       .  A
C2031      H2038   1.083       .  S
C2032      C2033   1.432       .  A
C2033      C2034   1.400       .  A
C2033     Br2040   1.931       .  S
C2034      C2035   1.396       .  A
C2034      H2039   1.084       .  S
C2035      C2036   1.430       .  A
C2036     Br2037   1.930       .  S
C2041      C2042   1.415       .  A
C2041      C2046   1.392       .  A
C2041      H2048   1.082       .  S
C2042      C2043   1.403       .  A
C2043      C2044   1.404       .  A
C2043     Br2050   1.922       .  S
C2044      C2045   1.418       .  A
C2044      H2049   1.083       .  S
C2045      C2046   1.396       .  A
C2046     Br2047   1.921       .  S
C2051      C2052   1.409       .  A
C2051      C2056   1.401       .  A
C2051      H2058   1.078       .  S
C2052      C2053   1.400       .  A
C2053      C2054   1.394       .  A
C2053     Br2060   1.923       .  S
C2054      C2055   1.415       .  A
C2054      H2059   1.078       .  S
C2055      C2056   1.406       .  A
C2056     Br2057   1.917       .  S
C2061      C2062   1.405       .  A
C2061      C2066   1.389       .  A
C2061      H2068   1.084       .  S
C2062      C2063   1.411       .  A
C2063      C2064   1.414       .  A
C2063     Br2070   1.921       .  S
C2064      C2065   1.410       .  A
C2064      H2069   1.082       .  S
C2065      C2066   1.401       .  A
C2066     Br2067   1.913       .  S
O2071      C2079   1.285       .  A
O2071     Co2091   2.000       .  S
O2072      C2080   1.301       .  A
O2072     Co2092   2.034   1_556  S
O2073      C2081   1.272       .  A
O2073     Co2093   1.955       .  S
O2074      C2082   1.279       .  A
O2074     Co2094   1.987       .  S
O2075      C2081   1.300       .  A
O2076      C2082   1.287       .  A
O2077      C2080   1.271       .  A
O2077     Co2094   1.962       .  S
O2078      C2079   1.282       .  A
O2078     Co2093   2.014       .  S
C2079      C2479   1.478       .  S
C2080      C2446   1.489       .  S
C2081      C2459   1.476       .  S
C2082      C2469   1.492       .  S
O2083      C2096   1.279       .  A
O2084      C2097   1.275       .  A
O2085      C2098   1.287       .  A
O2085     Co2093   1.981       .  S
O2086      C2099   1.307       .  A
O2086     Co2094   2.063       .  S
O2087      C2099   1.267       .  A
O2087     Co2092   1.954   1_556  S
O2088      C2098   1.278       .  A
O2088     Co2091   1.990       .  S
O2089      C2096   1.305       .  A
O2089     Co2094   2.057       .  S
O2090      C2097   1.295       .  A
O2090     Co2093   2.033       .  S
Co2091     O2095   1.884       .  S
Co2093     O2095   1.877       .  S
C2096      C2419   1.503       .  S
C2097      C2426   1.496       .  S
C2098      C2436   1.467       .  S
C2099      C2409   1.505       .  S
O2100      C2108   1.274       .  A
O2100     Co2120   1.995       .  S
O2101      C2109   1.263       .  A
O2101     Co2121   1.943       .  S
O2102      C2110   1.289       .  A
O2103      C2111   1.282       .  A
O2104      C2110   1.278       .  A
O2104     Co2121   2.021       .  S
O2105      C2111   1.264       .  A
O2105     Co2120   1.955       .  S
O2106      C2109   1.283       .  A
O2106     Co2123   2.051       .  S
O2107      C2108   1.295       .  A
O2107     Co2122   2.048       .  S
C2108      C2396   1.517       .  S
C2109      C2366   1.490       .  S
C2110      C2386   1.496       .  S
C2111      C2379   1.486       .  S
O2112      C2125   1.271       .  A
O2112     Co2120   1.948       .  S
O2113      C2126   1.284       .  A
O2113     Co2121   1.990       .  S
O2114      C2127   1.275       .  A
O2114     Co2122   2.004       .  S
O2115      C2128   1.307       .  A
O2115     Co2123   2.073       .  S
O2116      C2128   1.296       .  A
O2116     Co2121   2.047       .  S
O2117      C2127   1.267       .  A
O2117     Co2120   1.952       .  S
O2118      C2125   1.312       .  A
O2119      C2126   1.278       .  A
Co2120     O2124   1.917       .  S
Co2122     O2124   2.041       .  S
C2125      C2326   1.475       .  S
C2126      C2356   1.502       .  S
C2127      C2336   1.477       .  S
C2128      C2349   1.509       .  S
O2129      C2137   1.272       .  A
O2129     Co2149   1.978       .  S
O2130      C2138   1.285       .  A
O2130     Co2150   2.026       .  S
O2131      C2139   1.282       .  A
O2131     Co2979   2.004       .  S
O2132      C2140   1.275       .  A
O2132     Co2152   1.989   1_545  S
O2133      C2139   1.290       .  A
O2133     Co2150   1.923       .  S
O2134      C2140   1.277       .  A
O2134     Co2149   1.978       .  S
O2135      C2138   1.273       .  A
O2135     Co2980   1.987       .  S
O2136      C2137   1.272       .  A
O2136     Co2151   2.010   1_545  S
C2137      C2316   1.486       .  S
C2138      C2286   1.487       .  S
C2139      C2296   1.464       .  S
C2140      C2309   1.457       .  S
O2141      C2154   1.273       .  A
O2141     Co2149   1.958       .  S
O2142      C2155   1.276       .  A
O2142     Co2150   2.031       .  S
O2143      C2156   1.283       .  A
O2143     Co2151   2.007   1_545  S
O2144      C2157   1.290       .  A
O2144     Co2980   1.996       .  S
O2145      C2157   1.302       .  A
O2145     Co2150   2.074       .  S
O2146      C2156   1.272       .  A
O2146     Co2149   1.958       .  S
O2147      C2154   1.296       .  A
O2147     Co2152   2.026   1_545  S
O2148      C2155   1.275       .  A
O2148     Co2979   1.996       .  S
Co2149     O2153   1.891   1_545  S
Co2150     O2981   1.890       .  S
Co2151     O2959   2.004       .  S
Co2151     O2976   1.996       .  S
Co2151     O2153   2.020       .  S
Co2152     O2963   1.987       .  S
Co2152     O2972   1.996       .  S
Co2152     O2153   1.912       .  S
O2153     Co2978   1.890       .  S
C2154      C2339   1.465       .  S
C2155      C2429   1.498       .  S
C2156      C2439   1.483       .  S
C2157      C2329   1.486       .  S
O2158      C2166   1.290       .  A
O2158     Co2178   2.116   1_545  S
O2159      C2167   1.275       .  A
O2159     Co3007   2.005       .  S
O2160      C2168   1.292       .  A
O2160     Co2180   2.041       .  S
O2161      C2169   1.282       .  A
O2161     Co2181   2.006       .  S
O2162      C2168   1.262       .  A
O2162     Co2179   1.980       .  S
O2163      C2169   1.276       .  A
O2163     Co3006   1.991       .  S
O2164      C2167   1.265       .  A
O2164     Co2181   1.951       .  S
O2165      C2166   1.278       .  A
O2165     Co2180   1.918       .  S
C2166      C2276   1.492       .  S
C2167      C2246   1.467       .  S
C2168      C2266   1.506       .  S
C2169      C2259   1.469       .  S
O2170      C2183   1.293       .  A
O2170     Co3006   2.046       .  S
O2171      C2184   1.294       .  A
O2171     Co2179   2.034       .  S
O2172      C2185   1.292       .  A
O2172     Co2180   2.128       .  S
O2173      C2186   1.281       .  A
O2173     Co2181   2.023       .  S
O2174      C2186   1.284       .  A
O2174     Co3007   2.007       .  S
O2175      C2185   1.287       .  A
O2175     Co2178   1.940   1_545  S
O2176      C2183   1.255       .  A
O2176     Co2181   1.960       .  S
O2177      C2184   1.266       .  A
O2177     Co2180   1.971       .  S
Co2178     O2991   1.991       .  S
Co2178     O2998   2.046       .  S
Co2178     O2182   1.977       .  S
Co2179     O2987   2.005   1_545  S
Co2179     O3002   2.007   1_545  S
Co2179     O2182   2.028   1_545  S
Co2180     O2182   1.953   1_545  S
Co2181     O3010   2.003       .  S
O2182     Co3009   2.003       .  S
C2183      C2406   1.498       .  S
C2184      C2359   1.494       .  S
C2185      C2416   1.502       .  S
C2186      C2346   1.489       .  S
O2187      C2195   1.279       .  A
O2187     Co2207   1.983       .  S
O2188      C2196   1.288       .  A
O2188     Co2208   2.035       .  S
O2189      C2197   1.283       .  A
O2190      C2198   1.274       .  A
O2191      C2197   1.280       .  A
O2191     Co2208   2.010       .  S
O2192      C2198   1.284       .  A
O2192     Co2207   1.996       .  S
O2193      C2196   1.269       .  A
O2193     Co2210   1.983       .  S
O2194      C2195   1.306       .  A
O2194     Co2209   2.076       .  S
C2195      C2476   1.481       .  S
C2196      C2389   1.499       .  S
C2197      C2399   1.511       .  S
C2198      C2466   1.473       .  S
O2199      C2212   1.264       .  A
O2199     Co2207   1.979       .  S
O2200      C2213   1.303       .  A
O2200     Co2208   2.092       .  S
O2201      C2214   1.274       .  A
O2201     Co2209   2.008       .  S
O2202      C2215   1.282       .  A
O2202     Co2210   2.023       .  S
O2203      C2215   1.263       .  A
O2203     Co2208   1.986       .  S
O2204      C2214   1.268       .  A
O2204     Co2207   2.003       .  S
O2205      C2212   1.278       .  A
O2206      C2213   1.279       .  A
Co2208     O2211   2.116       .  S
Co2210     O2211   2.038       .  S
C2212      C2279   1.477       .  S
C2213      C2306   1.463       .  S
C2214      C2319   1.498       .  S
C2215      C2269   1.497       .  S
O2216      C2224   1.268       .  A
O2216     Co2236   1.989       .  S
O2217      C2225   1.274       .  A
O2218      C2226   1.274       .  A
O2218     Co2238   1.989       .  S
O2219      C2227   1.271       .  A
O2219     Co2239   1.988       .  S
O2220      C2226   1.262       .  A
O2220     Co2237   1.989       .  S
O2221      C2227   1.264       .  A
O2222      C2225   1.276       .  A
O2222     Co2239   1.991       .  S
O2223      C2224   1.275       .  A
O2223     Co2238   1.994       .  S
C2224      C2456   1.490       .  S
C2225      C2369   1.474       .  S
C2226      C2449   1.490       .  S
C2227      C2376   1.478       .  S
O2228      C2241   1.273       .  A
O2229      C2242   1.282       .  A
O2229     Co2237   1.995       .  S
O2230      C2243   1.273       .  A
O2230     Co2238   1.978       .  S
O2231      C2244   1.265       .  A
O2231     Co2239   1.973       .  S
O2232      C2244   1.267       .  A
O2233      C2243   1.279       .  A
O2233     Co2236   1.972       .  S
O2234      C2241   1.280       .  A
O2234     Co2239   2.030       .  S
O2235      C2242   1.281       .  A
O2235     Co2238   2.018       .  S
Co2236     O2240   2.088       .  S
Co2237     O2240   2.083       .  S
Co2238     O2240   1.971       .  S
C2241      C2289   1.476       .  S
C2242      C2256   1.486       .  S
C2243      C2299   1.446       .  S
C2244      C2249   1.448       .  S
C2245      C2246   1.408       .  A
C2245      C2250   1.387       .  A
C2245      H2252   1.079       .  S
C2246      C2247   1.413       .  A
C2247      C2248   1.387       .  A
C2247     Br2254   1.924       .  S
C2248      C2249   1.401       .  A
C2248      H2253   1.084       .  S
C2249      C2250   1.399       .  A
C2250     Br2251   1.921       .  S
C2255      C2256   1.409       .  A
C2255      C2260   1.389       .  A
C2255      H2262   1.083       .  S
C2256      C2257   1.410       .  A
C2257      C2258   1.406       .  A
C2257     Br2264   1.915       .  S
C2258      C2259   1.405       .  A
C2258      H2263   1.078       .  S
C2259      C2260   1.401       .  A
C2260     Br2261   1.916       .  S
C2265      C2266   1.395       .  A
C2265      C2270   1.406       .  A
C2265      H2272   1.083       .  S
C2266      C2267   1.437       .  A
C2267      C2268   1.404       .  A
C2267     Br2274   1.930       .  S
C2268      C2269   1.394       .  A
C2268      H2273   1.084       .  S
C2269      C2270   1.422       .  A
C2270     Br2271   1.897       .  S
C2275      C2276   1.417       .  A
C2275      C2280   1.397       .  A
C2275      H2282   1.083       .  S
C2276      C2277   1.406       .  A
C2277      C2278   1.403       .  A
C2277     Br2284   1.917       .  S
C2278      C2279   1.412       .  A
C2278      H2283   1.081       .  S
C2279      C2280   1.400       .  A
C2280     Br2281   1.921       .  S
C2285      C2286   1.406       .  A
C2285      C2290   1.404       .  A
C2285      H2292   1.083       .  S
C2286      C2287   1.423       .  A
C2287      C2288   1.397       .  A
C2287     Br2294   1.927       .  S
C2288      C2289   1.398       .  A
C2288      H2293   1.084       .  S
C2289      C2290   1.404       .  A
C2290     Br2291   1.912       .  S
C2295      C2296   1.418       .  A
C2295      C2300   1.375       .  A
C2295      H2302   1.083       .  S
C2296      C2297   1.399       .  A
C2297      C2298   1.390       .  A
C2297     Br2304   1.918       .  S
C2298      C2299   1.412       .  A
C2298      H2303   1.081       .  S
C2299      C2300   1.392       .  A
C2300     Br2301   1.926       .  S
C2305      C2306   1.407       .  A
C2305      C2310   1.390       .  A
C2305      H2312   1.084       .  S
C2306      C2307   1.405       .  A
C2307      C2308   1.392       .  A
C2307     Br2314   1.920       .  S
C2308      C2309   1.404       .  A
C2308      H2313   1.076       .  S
C2309      C2310   1.403       .  A
C2310     Br2311   1.922       .  S
C2315      C2316   1.408       .  A
C2315      C2320   1.402       .  A
C2315      H2322   1.083       .  S
C2316      C2317   1.408       .  A
C2317      C2318   1.403       .  A
C2317     Br2324   1.919       .  S
C2318      C2319   1.415       .  A
C2318      H2323   1.083       .  S
C2319      C2320   1.411       .  A
C2320     Br2321   1.917       .  S
C2325      C2326   1.401       .  A
C2325      C2330   1.396       .  A
C2325      H2332   1.080       .  S
C2326      C2327   1.404       .  A
C2327      C2328   1.407       .  A
C2327     Br2334   1.922       .  S
C2328      C2329   1.405       .  A
C2328      H2333   1.074       .  S
C2329      C2330   1.408       .  A
C2330     Br2331   1.917       .  S
C2335      C2336   1.408       .  A
C2335      C2340   1.390       .  A
C2335      H2342   1.084       .  S
C2336      C2337   1.402       .  A
C2337      C2338   1.401       .  A
C2337     Br2344   1.918       .  S
C2338      C2339   1.412       .  A
C2338      H2343   1.075       .  S
C2339      C2340   1.402       .  A
C2340     Br2341   1.917       .  S
C2345      C2346   1.403       .  A
C2345      C2350   1.406       .  A
C2345      H2352   1.085       .  S
C2346      C2347   1.402       .  A
C2347      C2348   1.410       .  A
C2347     Br2354   1.909       .  S
C2348      C2349   1.401       .  A
C2348      H2353   1.072       .  S
C2349      C2350   1.419       .  A
C2350     Br2351   1.910       .  S
C2355      C2356   1.402       .  A
C2355      C2360   1.409       .  A
C2355      H2362   1.083       .  S
C2356      C2357   1.426       .  A
C2357      C2358   1.397       .  A
C2357     Br2364   1.908       .  S
C2358      C2359   1.390       .  A
C2358      H2363   1.084       .  S
C2359      C2360   1.429       .  A
C2360     Br2361   1.926       .  S
C2365      C2366   1.414       .  A
C2365      C2370   1.404       .  A
C2365      H2372   1.083       .  S
C2366      C2367   1.411       .  A
C2367      C2368   1.393       .  A
C2367     Br2374   1.922       .  S
C2368      C2369   1.396       .  A
C2368      H2373   1.066       .  S
C2369      C2370   1.403       .  A
C2370     Br2371   1.916       .  S
C2375      C2376   1.400       .  A
C2375      C2380   1.400       .  A
C2375      H2382   1.084       .  S
C2376      C2377   1.414       .  A
C2377      C2378   1.391       .  A
C2377     Br2384   1.910       .  S
C2378      C2379   1.399       .  A
C2378      H2383   1.083       .  S
C2379      C2380   1.421       .  A
C2380     Br2381   1.926       .  S
C2385      C2386   1.408       .  A
C2385      C2390   1.415       .  A
C2385      H2392   1.067       .  S
C2386      C2387   1.404       .  A
C2387      C2388   1.397       .  A
C2387     Br2394   1.909       .  S
C2388      C2389   1.413       .  A
C2388      H2393   1.084       .  S
C2389      C2390   1.409       .  A
C2390     Br2391   1.915       .  S
C2395      C2396   1.419       .  A
C2395      C2400   1.403       .  A
C2395      H2402   1.074       .  S
C2396      C2397   1.409       .  A
C2397      C2398   1.415       .  A
C2397     Br2404   1.916       .  S
C2398      C2399   1.423       .  A
C2398      H2403   1.082       .  S
C2399      C2400   1.404       .  A
C2400     Br2401   1.920       .  S
C2405      C2406   1.393       .  A
C2405      C2410   1.405       .  A
C2405      H2412   1.084       .  S
C2406      C2407   1.433       .  A
C2407      C2408   1.402       .  A
C2407     Br2414   1.918       .  S
C2408      C2409   1.390       .  A
C2408      H2413   1.083       .  S
C2409      C2410   1.441       .  A
C2410     Br2411   1.934       .  S
C2415      C2416   1.414       .  A
C2415      C2420   1.410       .  A
C2415      H2422   1.079       .  S
C2416      C2417   1.406       .  A
C2417      C2418   1.411       .  A
C2417     Br2424   1.915       .  S
C2418      C2419   1.419       .  A
C2418      H2423   1.084       .  S
C2419      C2420   1.404       .  A
C2420     Br2421   1.916       .  S
C2425      C2426   1.414       .  A
C2425      C2430   1.401       .  A
C2425      H2432   1.073       .  S
C2426      C2427   1.404       .  A
C2427      C2428   1.403       .  A
C2427     Br2434   1.918       .  S
C2428      C2429   1.420       .  A
C2428      H2433   1.082       .  S
C2429      C2430   1.407       .  A
C2430     Br2431   1.922       .  S
C2435      C2436   1.414       .  A
C2435      C2440   1.405       .  A
C2435      H2442   1.078       .  S
C2436      C2437   1.395       .  A
C2437      C2438   1.381       .  A
C2437     Br2444   1.925       .  S
C2438      C2439   1.414       .  A
C2438      H2443   1.078       .  S
C2439      C2440   1.406       .  A
C2440     Br2441   1.918       .  S
C2445      C2446   1.389       .  A
C2445      C2450   1.394       .  A
C2445      H2452   1.083       .  S
C2446      C2447   1.432       .  A
C2447      C2448   1.400       .  A
C2447     Br2454   1.931       .  S
C2448      C2449   1.396       .  A
C2448      H2453   1.084       .  S
C2449      C2450   1.430       .  A
C2450     Br2451   1.930       .  S
C2455      C2456   1.415       .  A
C2455      C2460   1.392       .  A
C2455      H2462   1.082       .  S
C2456      C2457   1.403       .  A
C2457      C2458   1.404       .  A
C2457     Br2464   1.922       .  S
C2458      C2459   1.418       .  A
C2458      H2463   1.083       .  S
C2459      C2460   1.396       .  A
C2460     Br2461   1.921       .  S
C2465      C2466   1.409       .  A
C2465      C2470   1.401       .  A
C2465      H2472   1.078       .  S
C2466      C2467   1.400       .  A
C2467      C2468   1.394       .  A
C2467     Br2474   1.923       .  S
C2468      C2469   1.415       .  A
C2468      H2473   1.078       .  S
C2469      C2470   1.406       .  A
C2470     Br2471   1.917       .  S
C2475      C2476   1.405       .  A
C2475      C2480   1.389       .  A
C2475      H2482   1.084       .  S
C2476      C2477   1.411       .  A
C2477      C2478   1.414       .  A
C2477     Br2484   1.921       .  S
C2478      C2479   1.410       .  A
C2478      H2483   1.082       .  S
C2479      C2480   1.401       .  A
C2480     Br2481   1.913       .  S
O2485      C2493   1.285       .  A
O2485     Co2505   2.000       .  S
O2486      C2494   1.301       .  A
O2486     Co2506   2.034       .  S
O2487      C2495   1.272       .  A
O2487     Co2507   1.955       .  S
O2488      C2496   1.279       .  A
O2488     Co2508   1.987       .  S
O2489      C2495   1.300       .  A
O2489     Co2920   2.033       .  S
O2490      C2496   1.287       .  A
O2490     Co2919   2.003       .  S
O2491      C2494   1.271       .  A
O2491     Co2508   1.962       .  S
O2492      C2493   1.282       .  A
O2492     Co2507   2.014       .  S
C2493      C2893   1.478       .  S
C2494      C2860   1.489       .  S
C2495      C2873   1.476       .  S
C2496      C2883   1.492       .  S
O2497      C2510   1.279       .  A
O2497     Co2919   1.984       .  S
O2498      C2511   1.275       .  A
O2498     Co2920   1.977       .  S
O2499      C2512   1.287       .  A
O2499     Co2507   1.981       .  S
O2500      C2513   1.307       .  A
O2500     Co2508   2.063       .  S
O2501      C2513   1.267       .  A
O2501     Co2506   1.954       .  S
O2502      C2512   1.278       .  A
O2502     Co2505   1.990       .  S
O2503      C2510   1.305       .  A
O2503     Co2508   2.057       .  S
O2504      C2511   1.295       .  A
O2504     Co2507   2.033       .  S
Co2505     O2904   2.003   1_554  S
Co2505     O2911   1.984   1_554  S
Co2505     O2509   1.884       .  S
Co2506     O2903   2.033       .  S
Co2506     O2912   1.977       .  S
Co2506     O2923   1.876       .  S
Co2507     O2509   1.877       .  S
Co2508     O2923   1.888       .  S
O2509     Co2920   1.876       .  S
O2509     Co2922   1.888   1_554  S
C2510      C2833   1.503       .  S
C2511      C2840   1.496       .  S
C2512      C2850   1.467       .  S
C2513      C2823   1.505       .  S
O2514      C2522   1.274       .  A
O2514     Co2534   1.995       .  S
O2515      C2523   1.263       .  A
O2515     Co2535   1.943       .  S
O2516      C2524   1.289       .  A
O2516     Co2950   2.024       .  S
O2517      C2525   1.282       .  A
O2517     Co2951   2.039   1_554  S
O2518      C2524   1.278       .  A
O2518     Co2535   2.021       .  S
O2519      C2525   1.264       .  A
O2519     Co2534   1.955       .  S
O2520      C2523   1.283       .  A
O2520     Co2537   2.051       .  S
O2521      C2522   1.295       .  A
O2521     Co2536   2.048       .  S
C2522      C2810   1.517       .  S
C2523      C2780   1.490       .  S
C2524      C2800   1.496       .  S
C2525      C2793   1.486       .  S
O2526      C2539   1.271       .  A
O2526     Co2534   1.948       .  S
O2527      C2540   1.284       .  A
O2527     Co2535   1.990       .  S
O2528      C2541   1.275       .  A
O2528     Co2536   2.004       .  S
O2529      C2542   1.307       .  A
O2529     Co2537   2.073       .  S
O2530      C2542   1.296       .  A
O2530     Co2535   2.047       .  S
O2531      C2541   1.267       .  A
O2531     Co2534   1.952       .  S
O2532      C2539   1.312       .  A
O2532     Co2951   2.107   1_554  S
O2533      C2540   1.278       .  A
O2533     Co2950   2.023       .  S
Co2534     O2538   1.917   1_554  S
Co2535     O2952   1.944       .  S
Co2536     O2930   2.024   1_554  S
Co2536     O2947   2.023   1_554  S
Co2536     O2538   2.041   1_554  S
Co2537     O2931   2.039       .  S
Co2537     O2946   2.107       .  S
Co2537     O2952   2.029       .  S
O2538     Co2949   1.944       .  S
O2538     Co2951   2.029       .  S
C2539      C2740   1.475       .  S
C2540      C2770   1.502       .  S
C2541      C2750   1.477       .  S
C2542      C2763   1.509       .  S
O2543      C2551   1.272       .  A
O2543     Co2563   1.978       .  S
O2544      C2552   1.285       .  A
O2544     Co2564   2.026       .  S
O2545      C2553   1.282       .  A
O2546      C2554   1.275       .  A
O2546     Co2566   1.989       .  S
O2547      C2553   1.290       .  A
O2547     Co2564   1.923       .  S
O2548      C2554   1.277       .  A
O2548     Co2563   1.978       .  S
O2549      C2552   1.273       .  A
O2550      C2551   1.272       .  A
O2550     Co2565   2.010       .  S
C2551      C2730   1.486       .  S
C2552      C2700   1.487       .  S
C2553      C2710   1.464       .  S
C2554      C2723   1.457       .  S
O2555      C2568   1.273       .  A
O2555     Co2563   1.958       .  S
O2556      C2569   1.276       .  A
O2556     Co2564   2.031       .  S
O2557      C2570   1.283       .  A
O2557     Co2565   2.007       .  S
O2558      C2571   1.290       .  A
O2559      C2571   1.302       .  A
O2559     Co2564   2.074       .  S
O2560      C2570   1.272       .  A
O2560     Co2563   1.958       .  S
O2561      C2568   1.296       .  A
O2561     Co2566   2.026       .  S
O2562      C2569   1.275       .  A
Co2563     O2567   1.891       .  S
Co2565     O2567   2.020       .  S
Co2566     O2567   1.912       .  S
C2568      C2753   1.465       .  S
C2569      C2843   1.498       .  S
C2570      C2853   1.483       .  S
C2571      C2743   1.486       .  S
O2572      C2580   1.290       .  A
O2572     Co2592   2.116       .  S
O2573      C2581   1.275       .  A
O2574      C2582   1.292       .  A
O2574     Co2594   2.041       .  S
O2575      C2583   1.282       .  A
O2575     Co2595   2.006       .  S
O2576      C2582   1.262       .  A
O2576     Co2593   1.980       .  S
O2577      C2583   1.276       .  A
O2578      C2581   1.265       .  A
O2578     Co2595   1.951       .  S
O2579      C2580   1.278       .  A
O2579     Co2594   1.918       .  S
C2580      C2690   1.492       .  S
C2581      C2660   1.467       .  S
C2582      C2680   1.506       .  S
C2583      C2673   1.469       .  S
O2584      C2597   1.293       .  A
O2585      C2598   1.294       .  A
O2585     Co2593   2.034       .  S
O2586      C2599   1.292       .  A
O2586     Co2594   2.128       .  S
O2587      C2600   1.281       .  A
O2587     Co2595   2.023       .  S
O2588      C2600   1.284       .  A
O2589      C2599   1.287       .  A
O2589     Co2592   1.940       .  S
O2590      C2597   1.255       .  A
O2590     Co2595   1.960       .  S
O2591      C2598   1.266       .  A
O2591     Co2594   1.971       .  S
Co2592     O2596   1.977       .  S
Co2593     O2596   2.028       .  S
Co2594     O2596   1.953       .  S
C2597      C2820   1.498       .  S
C2598      C2773   1.494       .  S
C2599      C2830   1.502       .  S
C2600      C2760   1.489       .  S
O2601      C2609   1.279       .  A
O2601     Co2621   1.983       .  S
O2602      C2610   1.288       .  A
O2602     Co2622   2.035       .  S
O2603      C2611   1.283       .  A
O2604      C2612   1.274       .  A
O2605      C2611   1.280       .  A
O2605     Co2622   2.010       .  S
O2606      C2612   1.284       .  A
O2606     Co2621   1.996       .  S
O2607      C2610   1.269       .  A
O2607     Co2624   1.983       .  S
O2608      C2609   1.306       .  A
O2608     Co2623   2.076       .  S
C2609      C2890   1.481       .  S
C2610      C2803   1.499       .  S
C2611      C2813   1.511       .  S
C2612      C2880   1.473       .  S
O2613      C2626   1.264       .  A
O2613     Co2621   1.979       .  S
O2614      C2627   1.303       .  A
O2614     Co2622   2.092       .  S
O2615      C2628   1.274       .  A
O2615     Co2623   2.008       .  S
O2616      C2629   1.282       .  A
O2616     Co2624   2.023       .  S
O2617      C2629   1.263       .  A
O2617     Co2622   1.986       .  S
O2618      C2628   1.268       .  A
O2618     Co2621   2.003       .  S
O2619      C2626   1.278       .  A
O2620      C2627   1.279       .  A
Co2622     O2625   2.116       .  S
Co2624     O2625   2.038       .  S
C2626      C2693   1.477       .  S
C2627      C2720   1.463       .  S
C2628      C2733   1.498       .  S
C2629      C2683   1.497       .  S
O2630      C2638   1.268       .  A
O2630     Co2650   1.989       .  S
O2631      C2639   1.274       .  A
O2632      C2640   1.274       .  A
O2632     Co2652   1.989       .  S
O2633      C2641   1.271       .  A
O2633     Co2653   1.988       .  S
O2634      C2640   1.262       .  A
O2634     Co2651   1.989       .  S
O2635      C2641   1.264       .  A
O2636      C2639   1.276       .  A
O2636     Co2653   1.991       .  S
O2637      C2638   1.275       .  A
O2637     Co2652   1.994       .  S
C2638      C2870   1.490       .  S
C2639      C2783   1.474       .  S
C2640      C2863   1.490       .  S
C2641      C2790   1.478       .  S
O2642      C2655   1.273       .  A
O2643      C2656   1.282       .  A
O2643     Co2651   1.995       .  S
O2644      C2657   1.273       .  A
O2644     Co2652   1.978       .  S
O2645      C2658   1.265       .  A
O2645     Co2653   1.973       .  S
O2646      C2658   1.267       .  A
O2647      C2657   1.279       .  A
O2647     Co2650   1.972       .  S
O2648      C2655   1.280       .  A
O2648     Co2653   2.030       .  S
O2649      C2656   1.281       .  A
O2649     Co2652   2.018       .  S
Co2650     O2654   2.088       .  S
Co2651     O2654   2.083       .  S
Co2652     O2654   1.971       .  S
C2655      C2703   1.476       .  S
C2656      C2670   1.486       .  S
C2657      C2713   1.446       .  S
C2658      C2663   1.448       .  S
C2659      C2660   1.408       .  A
C2659      C2664   1.387       .  A
C2659      H2666   1.079       .  S
C2660      C2661   1.413       .  A
C2661      C2662   1.387       .  A
C2661     Br2668   1.924       .  S
C2662      C2663   1.401       .  A
C2662      H2667   1.084       .  S
C2663      C2664   1.399       .  A
C2664     Br2665   1.921       .  S
C2669      C2670   1.409       .  A
C2669      C2674   1.389       .  A
C2669      H2676   1.083       .  S
C2670      C2671   1.410       .  A
C2671      C2672   1.406       .  A
C2671     Br2678   1.915       .  S
C2672      C2673   1.405       .  A
C2672      H2677   1.078       .  S
C2673      C2674   1.401       .  A
C2674     Br2675   1.916       .  S
C2679      C2680   1.395       .  A
C2679      C2684   1.406       .  A
C2679      H2686   1.083       .  S
C2680      C2681   1.437       .  A
C2681      C2682   1.404       .  A
C2681     Br2688   1.930       .  S
C2682      C2683   1.394       .  A
C2682      H2687   1.084       .  S
C2683      C2684   1.422       .  A
C2684     Br2685   1.897       .  S
C2689      C2690   1.417       .  A
C2689      C2694   1.397       .  A
C2689      H2696   1.083       .  S
C2690      C2691   1.406       .  A
C2691      C2692   1.403       .  A
C2691     Br2698   1.917       .  S
C2692      C2693   1.412       .  A
C2692      H2697   1.081       .  S
C2693      C2694   1.400       .  A
C2694     Br2695   1.921       .  S
C2699      C2700   1.406       .  A
C2699      C2704   1.404       .  A
C2699      H2706   1.083       .  S
C2700      C2701   1.423       .  A
C2701      C2702   1.397       .  A
C2701     Br2708   1.927       .  S
C2702      C2703   1.398       .  A
C2702      H2707   1.084       .  S
C2703      C2704   1.404       .  A
C2704     Br2705   1.912       .  S
C2709      C2710   1.418       .  A
C2709      C2714   1.375       .  A
C2709      H2716   1.083       .  S
C2710      C2711   1.399       .  A
C2711      C2712   1.390       .  A
C2711     Br2718   1.918       .  S
C2712      C2713   1.412       .  A
C2712      H2717   1.081       .  S
C2713      C2714   1.392       .  A
C2714     Br2715   1.926       .  S
C2719      C2720   1.407       .  A
C2719      C2724   1.390       .  A
C2719      H2726   1.084       .  S
C2720      C2721   1.405       .  A
C2721      C2722   1.392       .  A
C2721     Br2728   1.920       .  S
C2722      C2723   1.404       .  A
C2722      H2727   1.076       .  S
C2723      C2724   1.403       .  A
C2724     Br2725   1.922       .  S
C2729      C2730   1.408       .  A
C2729      C2734   1.402       .  A
C2729      H2736   1.083       .  S
C2730      C2731   1.408       .  A
C2731      C2732   1.403       .  A
C2731     Br2738   1.919       .  S
C2732      C2733   1.415       .  A
C2732      H2737   1.083       .  S
C2733      C2734   1.411       .  A
C2734     Br2735   1.917       .  S
C2739      C2740   1.401       .  A
C2739      C2744   1.396       .  A
C2739      H2746   1.080       .  S
C2740      C2741   1.404       .  A
C2741      C2742   1.407       .  A
C2741     Br2748   1.922       .  S
C2742      C2743   1.405       .  A
C2742      H2747   1.074       .  S
C2743      C2744   1.408       .  A
C2744     Br2745   1.917       .  S
C2749      C2750   1.408       .  A
C2749      C2754   1.390       .  A
C2749      H2756   1.084       .  S
C2750      C2751   1.402       .  A
C2751      C2752   1.401       .  A
C2751     Br2758   1.918       .  S
C2752      C2753   1.412       .  A
C2752      H2757   1.075       .  S
C2753      C2754   1.402       .  A
C2754     Br2755   1.917       .  S
C2759      C2760   1.403       .  A
C2759      C2764   1.406       .  A
C2759      H2766   1.085       .  S
C2760      C2761   1.402       .  A
C2761      C2762   1.410       .  A
C2761     Br2768   1.909       .  S
C2762      C2763   1.401       .  A
C2762      H2767   1.072       .  S
C2763      C2764   1.419       .  A
C2764     Br2765   1.910       .  S
C2769      C2770   1.402       .  A
C2769      C2774   1.409       .  A
C2769      H2776   1.083       .  S
C2770      C2771   1.426       .  A
C2771      C2772   1.397       .  A
C2771     Br2778   1.908       .  S
C2772      C2773   1.390       .  A
C2772      H2777   1.084       .  S
C2773      C2774   1.429       .  A
C2774     Br2775   1.926       .  S
C2779      C2780   1.414       .  A
C2779      C2784   1.404       .  A
C2779      H2786   1.083       .  S
C2780      C2781   1.411       .  A
C2781      C2782   1.393       .  A
C2781     Br2788   1.922       .  S
C2782      C2783   1.396       .  A
C2782      H2787   1.066       .  S
C2783      C2784   1.403       .  A
C2784     Br2785   1.916       .  S
C2789      C2790   1.400       .  A
C2789      C2794   1.400       .  A
C2789      H2796   1.084       .  S
C2790      C2791   1.414       .  A
C2791      C2792   1.391       .  A
C2791     Br2798   1.910       .  S
C2792      C2793   1.399       .  A
C2792      H2797   1.083       .  S
C2793      C2794   1.421       .  A
C2794     Br2795   1.926       .  S
C2799      C2800   1.408       .  A
C2799      C2804   1.415       .  A
C2799      H2806   1.067       .  S
C2800      C2801   1.404       .  A
C2801      C2802   1.397       .  A
C2801     Br2808   1.909       .  S
C2802      C2803   1.413       .  A
C2802      H2807   1.084       .  S
C2803      C2804   1.409       .  A
C2804     Br2805   1.915       .  S
C2809      C2810   1.419       .  A
C2809      C2814   1.403       .  A
C2809      H2816   1.074       .  S
C2810      C2811   1.409       .  A
C2811      C2812   1.415       .  A
C2811     Br2818   1.916       .  S
C2812      C2813   1.423       .  A
C2812      H2817   1.082       .  S
C2813      C2814   1.404       .  A
C2814     Br2815   1.920       .  S
C2819      C2820   1.393       .  A
C2819      C2824   1.405       .  A
C2819      H2826   1.084       .  S
C2820      C2821   1.433       .  A
C2821      C2822   1.402       .  A
C2821     Br2828   1.918       .  S
C2822      C2823   1.390       .  A
C2822      H2827   1.083       .  S
C2823      C2824   1.441       .  A
C2824     Br2825   1.934       .  S
C2829      C2830   1.414       .  A
C2829      C2834   1.410       .  A
C2829      H2836   1.079       .  S
C2830      C2831   1.406       .  A
C2831      C2832   1.411       .  A
C2831     Br2838   1.915       .  S
C2832      C2833   1.419       .  A
C2832      H2837   1.084       .  S
C2833      C2834   1.404       .  A
C2834     Br2835   1.916       .  S
C2839      C2840   1.414       .  A
C2839      C2844   1.401       .  A
C2839      H2846   1.073       .  S
C2840      C2841   1.404       .  A
C2841      C2842   1.403       .  A
C2841     Br2848   1.918       .  S
C2842      C2843   1.420       .  A
C2842      H2847   1.082       .  S
C2843      C2844   1.407       .  A
C2844     Br2845   1.922       .  S
C2849      C2850   1.414       .  A
C2849      C2854   1.405       .  A
C2849      H2856   1.078       .  S
C2850      C2851   1.395       .  A
C2851      C2852   1.381       .  A
C2851     Br2858   1.925       .  S
C2852      C2853   1.414       .  A
C2852      H2857   1.078       .  S
C2853      C2854   1.406       .  A
C2854     Br2855   1.918       .  S
C2859      C2860   1.389       .  A
C2859      C2864   1.394       .  A
C2859      H2866   1.083       .  S
C2860      C2861   1.432       .  A
C2861      C2862   1.400       .  A
C2861     Br2868   1.931       .  S
C2862      C2863   1.396       .  A
C2862      H2867   1.084       .  S
C2863      C2864   1.430       .  A
C2864     Br2865   1.930       .  S
C2869      C2870   1.415       .  A
C2869      C2874   1.392       .  A
C2869      H2876   1.082       .  S
C2870      C2871   1.403       .  A
C2871      C2872   1.404       .  A
C2871     Br2878   1.922       .  S
C2872      C2873   1.418       .  A
C2872      H2877   1.083       .  S
C2873      C2874   1.396       .  A
C2874     Br2875   1.921       .  S
C2879      C2880   1.409       .  A
C2879      C2884   1.401       .  A
C2879      H2886   1.078       .  S
C2880      C2881   1.400       .  A
C2881      C2882   1.394       .  A
C2881     Br2888   1.923       .  S
C2882      C2883   1.415       .  A
C2882      H2887   1.078       .  S
C2883      C2884   1.406       .  A
C2884     Br2885   1.917       .  S
C2889      C2890   1.405       .  A
C2889      C2894   1.389       .  A
C2889      H2896   1.084       .  S
C2890      C2891   1.411       .  A
C2891      C2892   1.414       .  A
C2891     Br2898   1.921       .  S
C2892      C2893   1.410       .  A
C2892      H2897   1.082       .  S
C2893      C2894   1.401       .  A
C2894     Br2895   1.913       .  S
O2899      C2907   1.285       .  A
O2899     Co2919   2.000       .  S
O2900      C2908   1.301       .  A
O2900     Co2920   2.034   1_556  S
O2901      C2909   1.272       .  A
O2901     Co2921   1.955       .  S
O2902      C2910   1.279       .  A
O2902     Co2922   1.987       .  S
O2903      C2909   1.300       .  A
O2904      C2910   1.286       .  A
O2905      C2908   1.271       .  A
O2905     Co2922   1.962       .  S
O2906      C2907   1.282       .  A
O2906     Co2921   2.014       .  S
C2907      C3307   1.478       .  S
C2908      C3274   1.489       .  S
C2909      C3287   1.476       .  S
C2910      C3297   1.492       .  S
O2911      C2924   1.279       .  A
O2912      C2925   1.275       .  A
O2913      C2926   1.287       .  A
O2913     Co2921   1.981       .  S
O2914      C2927   1.307       .  A
O2914     Co2922   2.063       .  S
O2915      C2927   1.267       .  A
O2915     Co2920   1.954   1_556  S
O2916      C2926   1.278       .  A
O2916     Co2919   1.990       .  S
O2917      C2924   1.305       .  A
O2917     Co2922   2.057       .  S
O2918      C2925   1.295       .  A
O2918     Co2921   2.033       .  S
Co2919     O2923   1.884       .  S
Co2921     O2923   1.877       .  S
C2924      C3247   1.503       .  S
C2925      C3254   1.496       .  S
C2926      C3264   1.467       .  S
C2927      C3237   1.505       .  S
O2928      C2936   1.274       .  A
O2928     Co2948   1.995       .  S
O2929      C2937   1.263       .  A
O2929     Co2949   1.943       .  S
O2930      C2938   1.289       .  A
O2931      C2939   1.282       .  A
O2932      C2938   1.278       .  A
O2932     Co2949   2.021       .  S
O2933      C2939   1.264       .  A
O2933     Co2948   1.955       .  S
O2934      C2937   1.283       .  A
O2934     Co2951   2.051       .  S
O2935      C2936   1.295       .  A
O2935     Co2950   2.048       .  S
C2936      C3224   1.517       .  S
C2937      C3194   1.490       .  S
C2938      C3214   1.496       .  S
C2939      C3207   1.486       .  S
O2940      C2953   1.271       .  A
O2940     Co2948   1.948       .  S
O2941      C2954   1.284       .  A
O2941     Co2949   1.990       .  S
O2942      C2955   1.275       .  A
O2942     Co2950   2.004       .  S
O2943      C2956   1.307       .  A
O2943     Co2951   2.073       .  S
O2944      C2956   1.296       .  A
O2944     Co2949   2.047       .  S
O2945      C2955   1.267       .  A
O2945     Co2948   1.952       .  S
O2946      C2953   1.312       .  A
O2947      C2954   1.278       .  A
Co2948     O2952   1.917       .  S
Co2950     O2952   2.041       .  S
C2953      C3154   1.475       .  S
C2954      C3184   1.502       .  S
C2955      C3164   1.477       .  S
C2956      C3177   1.509       .  S
O2957      C2965   1.272       .  A
O2957     Co2977   1.978       .  S
O2958      C2966   1.285       .  A
O2958     Co2978   2.026       .  S
O2959      C2967   1.282       .  A
O2960      C2968   1.275       .  A
O2960     Co2980   1.989       .  S
O2961      C2967   1.290       .  A
O2961     Co2978   1.923       .  S
O2962      C2968   1.277       .  A
O2962     Co2977   1.978       .  S
O2963      C2966   1.273       .  A
O2964      C2965   1.272       .  A
O2964     Co2979   2.010       .  S
C2965      C3144   1.486       .  S
C2966      C3114   1.487       .  S
C2967      C3124   1.464       .  S
C2968      C3137   1.457       .  S
O2969      C2982   1.273       .  A
O2969     Co2977   1.958       .  S
O2970      C2983   1.276       .  A
O2970     Co2978   2.031       .  S
O2971      C2984   1.283       .  A
O2971     Co2979   2.007       .  S
O2972      C2985   1.290       .  A
O2973      C2985   1.302       .  A
O2973     Co2978   2.074       .  S
O2974      C2984   1.272       .  A
O2974     Co2977   1.958       .  S
O2975      C2982   1.296       .  A
O2975     Co2980   2.026       .  S
O2976      C2983   1.275       .  A
Co2977     O2981   1.891       .  S
Co2979     O2981   2.020       .  S
Co2980     O2981   1.912       .  S
C2982      C3167   1.465       .  S
C2983      C3257   1.498       .  S
C2984      C3267   1.483       .  S
C2985      C3157   1.486       .  S
O2986      C2994   1.290       .  A
O2986     Co3006   2.116       .  S
O2987      C2995   1.275       .  A
O2988      C2996   1.292       .  A
O2988     Co3008   2.041       .  S
O2989      C2997   1.282       .  A
O2989     Co3009   2.006       .  S
O2990      C2996   1.262       .  A
O2990     Co3007   1.980       .  S
O2991      C2997   1.276       .  A
O2992      C2995   1.265       .  A
O2992     Co3009   1.951       .  S
O2993      C2994   1.278       .  A
O2993     Co3008   1.918       .  S
C2994      C3104   1.492       .  S
C2995      C3074   1.467       .  S
C2996      C3094   1.506       .  S
C2997      C3087   1.469       .  S
O2998      C3011   1.293       .  A
O2999      C3012   1.294       .  A
O2999     Co3007   2.034       .  S
O3000      C3013   1.292       .  A
O3000     Co3008   2.128       .  S
O3001      C3014   1.281       .  A
O3001     Co3009   2.023       .  S
O3002      C3014   1.284       .  A
O3003      C3013   1.287       .  A
O3003     Co3006   1.940       .  S
O3004      C3011   1.255       .  A
O3004     Co3009   1.960       .  S
O3005      C3012   1.266       .  A
O3005     Co3008   1.971       .  S
Co3006     O3010   1.977       .  S
Co3007     O3010   2.028       .  S
Co3008     O3010   1.953       .  S
C3011      C3234   1.498       .  S
C3012      C3187   1.494       .  S
C3013      C3244   1.502       .  S
C3014      C3174   1.489       .  S
O3015      C3023   1.279       .  A
O3015     Co3035   1.983       .  S
O3016      C3024   1.288       .  A
O3016     Co3036   2.035       .  S
O3017      C3025   1.283       .  A
O3018      C3026   1.274       .  A
O3019      C3025   1.280       .  A
O3019     Co3036   2.010       .  S
O3020      C3026   1.284       .  A
O3020     Co3035   1.996       .  S
O3021      C3024   1.269       .  A
O3021     Co3038   1.983       .  S
O3022      C3023   1.306       .  A
O3022     Co3037   2.076       .  S
C3023      C3304   1.481       .  S
C3024      C3217   1.499       .  S
C3025      C3227   1.511       .  S
C3026      C3294   1.473       .  S
O3027      C3040   1.264       .  A
O3027     Co3035   1.979       .  S
O3028      C3041   1.303       .  A
O3028     Co3036   2.092       .  S
O3029      C3042   1.274       .  A
O3029     Co3037   2.008       .  S
O3030      C3043   1.282       .  A
O3030     Co3038   2.023       .  S
O3031      C3043   1.263       .  A
O3031     Co3036   1.986       .  S
O3032      C3042   1.268       .  A
O3032     Co3035   2.003       .  S
O3033      C3040   1.278       .  A
O3034      C3041   1.279       .  A
Co3036     O3039   2.116       .  S
Co3038     O3039   2.038       .  S
C3040      C3107   1.477       .  S
C3041      C3134   1.463       .  S
C3042      C3147   1.498       .  S
C3043      C3097   1.497       .  S
O3044      C3052   1.268       .  A
O3044     Co3064   1.989       .  S
O3045      C3053   1.274       .  A
O3046      C3054   1.274       .  A
O3046     Co3066   1.989       .  S
O3047      C3055   1.271       .  A
O3047     Co3067   1.988       .  S
O3048      C3054   1.262       .  A
O3048     Co3065   1.989       .  S
O3049      C3055   1.264       .  A
O3050      C3053   1.276       .  A
O3050     Co3067   1.991       .  S
O3051      C3052   1.275       .  A
O3051     Co3066   1.994       .  S
C3052      C3284   1.490       .  S
C3053      C3197   1.474       .  S
C3054      C3277   1.490       .  S
C3055      C3204   1.478       .  S
O3056      C3069   1.273       .  A
O3057      C3070   1.282       .  A
O3057     Co3065   1.995       .  S
O3058      C3071   1.273       .  A
O3058     Co3066   1.978       .  S
O3059      C3072   1.265       .  A
O3059     Co3067   1.973       .  S
O3060      C3072   1.267       .  A
O3061      C3071   1.279       .  A
O3061     Co3064   1.972       .  S
O3062      C3069   1.280       .  A
O3062     Co3067   2.030       .  S
O3063      C3070   1.281       .  A
O3063     Co3066   2.018       .  S
Co3064     O3068   2.088       .  S
Co3065     O3068   2.083       .  S
Co3066     O3068   1.971       .  S
C3069      C3117   1.476       .  S
C3070      C3084   1.486       .  S
C3071      C3127   1.446       .  S
C3072      C3077   1.448       .  S
C3073      C3074   1.408       .  A
C3073      C3078   1.387       .  A
C3073      H3080   1.079       .  S
C3074      C3075   1.413       .  A
C3075      C3076   1.387       .  A
C3075     Br3082   1.924       .  S
C3076      C3077   1.401       .  A
C3076      H3081   1.084       .  S
C3077      C3078   1.399       .  A
C3078     Br3079   1.921       .  S
C3083      C3084   1.409       .  A
C3083      C3088   1.389       .  A
C3083      H3090   1.083       .  S
C3084      C3085   1.410       .  A
C3085      C3086   1.406       .  A
C3085     Br3092   1.915       .  S
C3086      C3087   1.405       .  A
C3086      H3091   1.078       .  S
C3087      C3088   1.401       .  A
C3088     Br3089   1.916       .  S
C3093      C3094   1.395       .  A
C3093      C3098   1.406       .  A
C3093      H3100   1.083       .  S
C3094      C3095   1.437       .  A
C3095      C3096   1.404       .  A
C3095     Br3102   1.930       .  S
C3096      C3097   1.394       .  A
C3096      H3101   1.084       .  S
C3097      C3098   1.422       .  A
C3098     Br3099   1.897       .  S
C3103      C3104   1.417       .  A
C3103      C3108   1.397       .  A
C3103      H3110   1.083       .  S
C3104      C3105   1.406       .  A
C3105      C3106   1.403       .  A
C3105     Br3112   1.917       .  S
C3106      C3107   1.412       .  A
C3106      H3111   1.081       .  S
C3107      C3108   1.400       .  A
C3108     Br3109   1.921       .  S
C3113      C3114   1.406       .  A
C3113      C3118   1.404       .  A
C3113      H3120   1.083       .  S
C3114      C3115   1.423       .  A
C3115      C3116   1.397       .  A
C3115     Br3122   1.927       .  S
C3116      C3117   1.398       .  A
C3116      H3121   1.084       .  S
C3117      C3118   1.404       .  A
C3118     Br3119   1.912       .  S
C3123      C3124   1.418       .  A
C3123      C3128   1.375       .  A
C3123      H3130   1.083       .  S
C3124      C3125   1.399       .  A
C3125      C3126   1.390       .  A
C3125     Br3132   1.918       .  S
C3126      C3127   1.412       .  A
C3126      H3131   1.081       .  S
C3127      C3128   1.392       .  A
C3128     Br3129   1.926       .  S
C3133      C3134   1.407       .  A
C3133      C3138   1.390       .  A
C3133      H3140   1.084       .  S
C3134      C3135   1.405       .  A
C3135      C3136   1.392       .  A
C3135     Br3142   1.920       .  S
C3136      C3137   1.404       .  A
C3136      H3141   1.076       .  S
C3137      C3138   1.403       .  A
C3138     Br3139   1.922       .  S
C3143      C3144   1.408       .  A
C3143      C3148   1.402       .  A
C3143      H3150   1.083       .  S
C3144      C3145   1.408       .  A
C3145      C3146   1.403       .  A
C3145     Br3152   1.919       .  S
C3146      C3147   1.415       .  A
C3146      H3151   1.083       .  S
C3147      C3148   1.411       .  A
C3148     Br3149   1.917       .  S
C3153      C3154   1.401       .  A
C3153      C3158   1.396       .  A
C3153      H3160   1.080       .  S
C3154      C3155   1.404       .  A
C3155      C3156   1.407       .  A
C3155     Br3162   1.922       .  S
C3156      C3157   1.405       .  A
C3156      H3161   1.074       .  S
C3157      C3158   1.408       .  A
C3158     Br3159   1.917       .  S
C3163      C3164   1.408       .  A
C3163      C3168   1.390       .  A
C3163      H3170   1.084       .  S
C3164      C3165   1.402       .  A
C3165      C3166   1.401       .  A
C3165     Br3172   1.918       .  S
C3166      C3167   1.412       .  A
C3166      H3171   1.075       .  S
C3167      C3168   1.402       .  A
C3168     Br3169   1.917       .  S
C3173      C3174   1.403       .  A
C3173      C3178   1.405       .  A
C3173      H3180   1.085       .  S
C3174      C3175   1.402       .  A
C3175      C3176   1.410       .  A
C3175     Br3182   1.909       .  S
C3176      C3177   1.401       .  A
C3176      H3181   1.073       .  S
C3177      C3178   1.419       .  A
C3178     Br3179   1.910       .  S
C3183      C3184   1.402       .  A
C3183      C3188   1.409       .  A
C3183      H3190   1.083       .  S
C3184      C3185   1.426       .  A
C3185      C3186   1.397       .  A
C3185     Br3192   1.908       .  S
C3186      C3187   1.390       .  A
C3186      H3191   1.084       .  S
C3187      C3188   1.429       .  A
C3188     Br3189   1.926       .  S
C3193      C3194   1.414       .  A
C3193      C3198   1.404       .  A
C3193      H3200   1.083       .  S
C3194      C3195   1.411       .  A
C3195      C3196   1.393       .  A
C3195     Br3202   1.922       .  S
C3196      C3197   1.396       .  A
C3196      H3201   1.066       .  S
C3197      C3198   1.403       .  A
C3198     Br3199   1.916       .  S
C3203      C3204   1.400       .  A
C3203      C3208   1.400       .  A
C3203      H3210   1.084       .  S
C3204      C3205   1.414       .  A
C3205      C3206   1.391       .  A
C3205     Br3212   1.910       .  S
C3206      C3207   1.399       .  A
C3206      H3211   1.083       .  S
C3207      C3208   1.421       .  A
C3208     Br3209   1.926       .  S
C3213      C3214   1.408       .  A
C3213      C3218   1.415       .  A
C3213      H3220   1.067       .  S
C3214      C3215   1.404       .  A
C3215      C3216   1.397       .  A
C3215     Br3222   1.909       .  S
C3216      C3217   1.413       .  A
C3216      H3221   1.084       .  S
C3217      C3218   1.409       .  A
C3218     Br3219   1.915       .  S
C3223      C3224   1.419       .  A
C3223      C3228   1.403       .  A
C3223      H3230   1.074       .  S
C3224      C3225   1.409       .  A
C3225      C3226   1.415       .  A
C3225     Br3232   1.916       .  S
C3226      C3227   1.423       .  A
C3226      H3231   1.082       .  S
C3227      C3228   1.404       .  A
C3228     Br3229   1.920       .  S
C3233      C3234   1.393       .  A
C3233      C3238   1.405       .  A
C3233      H3240   1.084       .  S
C3234      C3235   1.433       .  A
C3235      C3236   1.402       .  A
C3235     Br3242   1.918       .  S
C3236      C3237   1.390       .  A
C3236      H3241   1.083       .  S
C3237      C3238   1.441       .  A
C3238     Br3239   1.934       .  S
C3243      C3244   1.414       .  A
C3243      C3248   1.410       .  A
C3243      H3250   1.079       .  S
C3244      C3245   1.406       .  A
C3245      C3246   1.411       .  A
C3245     Br3252   1.915       .  S
C3246      C3247   1.419       .  A
C3246      H3251   1.084       .  S
C3247      C3248   1.404       .  A
C3248     Br3249   1.916       .  S
C3253      C3254   1.414       .  A
C3253      C3258   1.401       .  A
C3253      H3260   1.073       .  S
C3254      C3255   1.404       .  A
C3255      C3256   1.403       .  A
C3255     Br3262   1.918       .  S
C3256      C3257   1.420       .  A
C3256      H3261   1.082       .  S
C3257      C3258   1.407       .  A
C3258     Br3259   1.922       .  S
C3263      C3264   1.414       .  A
C3263      C3268   1.405       .  A
C3263      H3270   1.078       .  S
C3264      C3265   1.395       .  A
C3265      C3266   1.381       .  A
C3265     Br3272   1.925       .  S
C3266      C3267   1.414       .  A
C3266      H3271   1.078       .  S
C3267      C3268   1.406       .  A
C3268     Br3269   1.918       .  S
C3273      C3274   1.389       .  A
C3273      C3278   1.394       .  A
C3273      H3280   1.083       .  S
C3274      C3275   1.432       .  A
C3275      C3276   1.400       .  A
C3275     Br3282   1.931       .  S
C3276      C3277   1.396       .  A
C3276      H3281   1.084       .  S
C3277      C3278   1.430       .  A
C3278     Br3279   1.930       .  S
C3283      C3284   1.415       .  A
C3283      C3288   1.392       .  A
C3283      H3290   1.082       .  S
C3284      C3285   1.403       .  A
C3285      C3286   1.404       .  A
C3285     Br3292   1.922       .  S
C3286      C3287   1.418       .  A
C3286      H3291   1.083       .  S
C3287      C3288   1.396       .  A
C3288     Br3289   1.921       .  S
C3293      C3294   1.409       .  A
C3293      C3298   1.401       .  A
C3293      H3300   1.078       .  S
C3294      C3295   1.400       .  A
C3295      C3296   1.394       .  A
C3295     Br3302   1.923       .  S
C3296      C3297   1.415       .  A
C3296      H3301   1.078       .  S
C3297      C3298   1.406       .  A
C3298     Br3299   1.917       .  S
C3303      C3304   1.405       .  A
C3303      C3308   1.389       .  A
C3303      H3310   1.084       .  S
C3304      C3305   1.411       .  A
C3305      C3306   1.414       .  A
C3305     Br3312   1.921       .  S
C3306      C3307   1.410       .  A
C3306      H3311   1.082       .  S
C3307      C3308   1.401       .  A
C3308     Br3309   1.913       .  S
