geometry optimzed in LAMMPS
_audit_creation_date              2020-11-30 
_audit_creation_method            'lammps2cif' 
_symmetry_space_group_name_H-M    'P1' 
_symmetry_Int_Tables_number       1 
_symmetry_cell_setting            triclinic 
loop_ 
_symmetry_equiv_pos_as_xyz 
  x,y,z 
_cell_length_a                    47.8026302 
_cell_length_b                    47.82755634802726 
_cell_length_c                    47.80134552589637 
_cell_angle_alpha                 90.15246244383815 
_cell_angle_beta                  89.86983164049285 
_cell_angle_gamma                 89.96828300176894 
loop_ 
_atom_site_label 
_atom_site_type_symbol 
_atom_site_fract_x 
_atom_site_fract_y 
_atom_site_fract_z 
_atom_site_charge 
O1          O  0.47329641  0.00374007  0.52204794    -0.72200
O2          O  0.54238738  0.00109290  0.47392222    -0.73200
O3          O  0.53131245  0.00226307  0.53208297    -0.61800
O4          O  0.48353787  0.00256308  0.46293356    -0.70300
O5          O  0.48398608  0.04896289  0.46329629    -0.69800
O6          O  0.53202537  0.04859724  0.53138292    -0.61100
O7          O  0.54289087  0.04735947  0.47345117    -0.73600
O8          O  0.47423450  0.05006278  0.52176679    -0.72300
Cu9        Cu  0.50751966  0.00076525  0.49757877     1.04600
Cu10       Cu  0.50831184  0.05030711  0.49724566     1.04300
C11         C  0.46361884  0.02721697  0.53057984     0.94000
C12         C  0.55418891  0.02399659  0.46688682     0.93100
C13         C  0.53885552  0.02553147  0.54286873     0.85200
C14         C  0.47578433  0.02592339  0.45256020     0.91500
O15         O  0.08640337  0.46005039  0.51781454    -0.72200
O16         O  0.08591532  0.38978041  0.47104900    -0.73200
O17         O  0.08687849  0.40178523  0.52988593    -0.61800
O18         O  0.08522501  0.44725966  0.45946536    -0.70300
O19         O  0.13156386  0.44760407  0.45865714    -0.69800
O20         O  0.13322749  0.40168476  0.52827685    -0.61100
O21         O  0.13221045  0.39056040  0.47016157    -0.73600
O22         O  0.13278134  0.45946712  0.51691417    -0.72300
Cu23       Cu  0.08442545  0.42471897  0.49470581     1.04600
Cu24       Cu  0.13398308  0.42487098  0.49357674     1.04300
C25         C  0.10988654  0.47068056  0.52493957     0.94000
C26         C  0.10914931  0.37982657  0.46216724     0.93100
C27         C  0.11041994  0.39439862  0.54014146     0.85200
C28         C  0.10817150  0.45387155  0.44744422     0.91500
O29         O  0.53170161  0.79273253  0.52430805    -0.72200
O30         O  0.46845704  0.79460650  0.46971640    -0.73200
O31         O  0.52737740  0.79496904  0.46552263    -0.61800
O32         O  0.47240753  0.79228014  0.52875250    -0.70300
O33         O  0.47197479  0.83869443  0.53009974    -0.69800
O34         O  0.52709687  0.84129164  0.46706265    -0.61100
O35         O  0.46811592  0.84097602  0.47164263    -0.73600
O36         O  0.53153589  0.83898501  0.52607977    -0.72300
Cu37       Cu  0.50003854  0.79202679  0.49707836     1.04600
Cu38       Cu  0.49975690  0.84159719  0.49888004     1.04300
C39         C  0.54199141  0.81558021  0.53356270     0.94000
C40         C  0.45817205  0.81806682  0.46218891     0.93100
C41         C  0.53568342  0.81849018  0.45603070     0.85200
C42         C  0.46290914  0.81515971  0.53882699     0.91500
O43         O  0.90248385  0.44145759  0.52641098    -0.72200
O44         O  0.90197952  0.38706358  0.46301732    -0.73200
O45         O  0.90072524  0.44568501  0.46740448    -0.61800
O46         O  0.90395174  0.38239642  0.52114311    -0.70300
O47         O  0.85760749  0.38078908  0.52230556    -0.69800
O48         O  0.85439220  0.44520322  0.46897307    -0.61100
O49         O  0.85559249  0.38631514  0.46426058    -0.73600
O50         O  0.85618175  0.44000770  0.52819542    -0.72300
Cu51       Cu  0.90387032  0.41434963  0.49448049     1.04600
Cu52       Cu  0.85429457  0.41320578  0.49602895     1.04300
C53         C  0.87943054  0.44921381  0.53755978     0.94000
C54         C  0.87870977  0.37736611  0.45427976     0.93100
C55         C  0.87719175  0.45518940  0.45921532     0.85200
C56         C  0.88135987  0.37075743  0.52930789     0.91500
O57         O  0.46849769  0.40088415  0.13549634    -0.72200
O58         O  0.54176001  0.44189531  0.13175577    -0.73200
O59         O  0.48480941  0.45785073  0.13797661    -0.61800
O60         O  0.52512942  0.38514534  0.12993541    -0.70300
O61         O  0.52182428  0.38715127  0.08376797    -0.69800
O62         O  0.48137076  0.46081111  0.09182090    -0.61100
O63         O  0.53792246  0.44431560  0.08562853    -0.73600
O64         O  0.46488422  0.40355390  0.08942691    -0.72300
Cu65       Cu  0.50518967  0.42138617  0.13536938     1.04600
Cu66       Cu  0.50134350  0.42408257  0.08604376     1.04300
C67         C  0.45519891  0.39539771  0.11296280     0.94000
C68         C  0.55143900  0.44958308  0.10802781     0.93100
C69         C  0.47667794  0.47089797  0.11620399     0.85200
C70         C  0.52980379  0.37444925  0.10587891     0.91500
O71         O  0.51966394  0.45711448  0.91508865    -0.72200
O72         O  0.47716114  0.38477984  0.91800537    -0.73200
O73         O  0.53439718  0.39971186  0.91550606    -0.61800
O74         O  0.46232993  0.44218386  0.91749402    -0.70300
O75         O  0.46028980  0.44042882  0.87119680    -0.69800
O76         O  0.53355520  0.39966260  0.86919263    -0.61100
O77         O  0.47667557  0.38335609  0.87166753    -0.73600
O78         O  0.51737010  0.45703096  0.86880128    -0.72300
Cu79       Cu  0.49844910  0.42100639  0.91811087     1.04600
Cu80       Cu  0.49691117  0.42011286  0.86858719     1.04300
C81         C  0.52524685  0.46859500  0.89161387     0.94000
C82         C  0.47037025  0.37246958  0.89525938     0.93100
C83         C  0.54535766  0.39274246  0.89210959     0.85200
C84         C  0.44981263  0.44796084  0.89464903     0.91500
O85         O  0.03603855  0.55742895  0.03378029    -0.72200
O86         O  0.96597572  0.55843861  0.98763042    -0.73200
O87         O  0.97795920  0.55629577  0.04577815    -0.61800
O88         O  0.02447405  0.55952968  0.97604009    -0.70300
O89         O  0.02441068  0.51325375  0.97411714    -0.69800
O90         O  0.97902992  0.51001661  0.04420756    -0.61100
O91         O  0.96634158  0.51220630  0.98632935    -0.73600
O92         O  0.03719064  0.51109686  0.03116537    -0.72300
Cu93       Cu  0.00101047  0.55954861  0.01088464     1.04600
Cu94       Cu  0.00166497  0.51005270  0.00891506     1.04300
C95         C  0.04800923  0.53417221  0.03916522     0.94000
C96         C  0.95501867  0.53542862  0.97953570     0.93100
C97         C  0.97121210  0.53263861  0.05614519     0.85200
C98         C  0.03242925  0.53677411  0.96443205     0.91500
O99         O  0.62733324  0.90261483  0.96062790    -0.72200
O100        O  0.62928187  0.94760795  0.03122624    -0.73200
O101        O  0.62935063  0.89024614  0.01888624    -0.61800
O102        O  0.62709813  0.96026574  0.97312127    -0.70300
O103        O  0.58073557  0.95956044  0.97409500    -0.69800
O104        O  0.58307289  0.89009395  0.02021402    -0.61100
O105        O  0.58300330  0.94745336  0.03248094    -0.73600
O106        O  0.58104645  0.90185734  0.96189295    -0.72300
Cu107      Cu  0.62986751  0.92521215  0.99584518     1.04600
Cu108      Cu  0.58035767  0.92474602  0.99719810     1.04300
C109        C  0.60402608  0.89525320  0.94985918     0.94000
C110        C  0.60642737  0.95410748  0.04349630     0.93100
C111        C  0.60645753  0.87955102  0.02759089     0.85200
C112        C  0.60358540  0.97072380  0.96594510     0.91500
O113        O  0.02181264  0.28194334  0.03637388    -0.72200
O114        O  0.97672679  0.28512785  0.96619107    -0.73200
O115        O  0.03458756  0.28387919  0.97890647    -0.61800
O116        O  0.96384909  0.28351245  0.02412690    -0.70300
O117        O  0.96443234  0.32979998  0.02509294    -0.69800
O118        O  0.03522640  0.33011404  0.98130500    -0.61100
O119        O  0.97764235  0.33144949  0.96769181    -0.73600
O120        O  0.02146617  0.32834560  0.03868399    -0.72300
Cu121      Cu  0.99917525  0.28195928  0.00130279     1.04600
Cu122      Cu  0.99971559  0.33150985  0.00319753     1.04300
C123        C  0.02870953  0.30467140  0.04858368     0.94000
C124        C  0.96997926  0.30876667  0.95582732     0.93100
C125        C  0.04633784  0.30718481  0.97325132     0.85200
C126        C  0.95305638  0.30671041  0.03199925     0.91500
O127        O  0.41806200  0.96115521  0.01931768    -0.72200
O128        O  0.41879284  0.89027290  0.97438603    -0.73200
O129        O  0.41962073  0.94857890  0.96147333    -0.61800
O130        O  0.41653223  0.90300592  0.03251657    -0.70300
O131        O  0.37031002  0.90412260  0.03081430    -0.69800
O132        O  0.37333647  0.94846262  0.96027672    -0.61100
O133        O  0.37249410  0.89062544  0.97329460    -0.73600
O134        O  0.37181261  0.96186334  0.01759607    -0.72300
Cu135      Cu  0.41990368  0.92568914  0.99696756     1.04600
Cu136      Cu  0.37044194  0.92625294  0.99543008     1.04300
C137        C  0.39485004  0.97300912  0.02528581     0.94000
C138        C  0.39575287  0.87904402  0.96688567     0.93100
C139        C  0.39671939  0.95610464  0.94988891     0.85200
C140        C  0.39275424  0.89634789  0.04293323     0.91500
O141        O  0.97354511  0.88374687  0.59711384    -0.72200
O142        O  0.02438006  0.94976336  0.60162442    -0.73200
O143        O  0.03168098  0.89101558  0.59772634    -0.61800
O144        O  0.96643473  0.94263432  0.60079937    -0.70300
O145        O  0.96627048  0.94066201  0.64714471    -0.69800
O146        O  0.03194685  0.88844574  0.64404312    -0.61100
O147        O  0.02470327  0.94745658  0.64793785    -0.73600
O148        O  0.97342467  0.88088732  0.64338754    -0.72300
Cu149      Cu  0.99898135  0.91682892  0.59777576     1.04600
Cu150      Cu  0.99899190  0.91417439  0.64730574     1.04300
C151        C  0.96597944  0.87136432  0.61950398     0.94000
C152        C  0.03204742  0.95955942  0.62528480     0.93100
C153        C  0.04206764  0.88137332  0.62028836     0.85200
C154        C  0.95679999  0.95084768  0.62434262     0.91500
O155        O  0.97238102  0.94687622  0.41825244    -0.72200
O156        O  0.02486442  0.88202295  0.42825681    -0.73200
O157        O  0.03157785  0.94118159  0.42169823    -0.61800
O158        O  0.96590244  0.88858334  0.42446591    -0.70300
O159        O  0.96939417  0.88309667  0.37848427    -0.69800
O160        O  0.03301550  0.93671927  0.37557087    -0.61100
O161        O  0.02801906  0.87846729  0.38202967    -0.73600
O162        O  0.97404866  0.94142620  0.37229010    -0.72300
Cu163      Cu  0.99868316  0.91488227  0.42484502     1.04600
Cu164      Cu  0.00125257  0.90974853  0.37556033     1.04300
C165        C  0.96429590  0.95399093  0.39381015     0.94000
C166        C  0.03472540  0.87005360  0.40643989     0.93100
C167        C  0.04252445  0.94746270  0.39807575     0.85200
C168        C  0.95728174  0.87762880  0.40164900     0.91500
N169        N  0.67337756  0.82473182  0.63458168    -0.26600
N170        N  0.66648787  0.79885653  0.64105599    -0.34400
C171        C  0.64488435  0.79071140  0.62512590     0.01800
C172        C  0.63762982  0.81265645  0.60774553     0.07800
C173        C  0.65623581  0.83391814  0.61433310    -0.05300
H174        H  0.63445335  0.77074654  0.62707208     0.08400
H175        H  0.65690339  0.85475914  0.60564322     0.09600
Cu176      Cu  0.68575394  0.77713420  0.67263884     0.44200
Cu177      Cu  0.70282452  0.84699528  0.65706202     0.42000
Cu178      Cu  0.72862374  0.81698384  0.72210988     0.43900
N179        N  0.70950216  0.75820686  0.70296725    -0.34000
N180        N  0.72560382  0.77153410  0.72118960    -0.28200
C181        C  0.73854194  0.75166678  0.73683962    -0.04300
C182        C  0.73002938  0.72504946  0.72782811     0.07900
C183        C  0.71164119  0.73033968  0.70639866     0.01700
H184        H  0.75318077  0.75609923  0.75349631     0.09300
H185        H  0.70068190  0.71496823  0.69391905     0.08400
N186        N  0.72797659  0.86163462  0.71331885    -0.35400
N187        N  0.72092452  0.87087929  0.68821951    -0.27600
C188        C  0.72040270  0.89896428  0.68812223    -0.02800
C189        C  0.72725360  0.90905390  0.71432297     0.05800
C190        C  0.73153913  0.88455073  0.73000939     0.03900
H191        H  0.71216465  0.91122943  0.67101482     0.09000
H192        H  0.73470191  0.88355800  0.75238747     0.07800
N193        N  0.63378643  0.01987788  0.67810538    -0.26600
N194        N  0.63845701  0.04618082  0.67140695    -0.34400
C195        C  0.62174581  0.05343612  0.65014889     0.01800
C196        C  0.60591098  0.03038885  0.64283491     0.07800
C197        C  0.61408253  0.00942048  0.66101344    -0.05300
H198        H  0.62254003  0.07338437  0.63955261     0.08400
H199        H  0.60722955  0.98787313  0.66101950     0.09600
Cu200      Cu  0.67037859  0.06892442  0.68855993     0.44200
Cu201      Cu  0.65872852  0.99887833  0.70626321     0.42000
Cu202      Cu  0.72603185  0.02987370  0.72389012     0.43900
N203        N  0.70328727  0.08822953  0.70793708    -0.34000
N204        N  0.72388929  0.07528851  0.72117148    -0.28200
C205        C  0.74044392  0.09550322  0.73240270    -0.04300
C206        C  0.72954277  0.12188890  0.72568389     0.07900
C207        C  0.70600367  0.11613450  0.71028881     0.01700
H208        H  0.75856482  0.09145655  0.74528602     0.09300
H209        H  0.69128105  0.13117993  0.70205336     0.08400
N210        N  0.71761712  0.98512502  0.72465008    -0.35400
N211        N  0.69185631  0.97564587  0.72106276    -0.27600
C212        C  0.69181960  0.94757170  0.72071669    -0.02800
C213        C  0.71874782  0.93770116  0.72398884     0.05800
C214        C  0.73475846  0.96233701  0.72603535     0.03900
H215        H  0.67384749  0.93515804  0.71479077     0.09000
H216        H  0.75735892  0.96349212  0.72613274     0.07800
N217        N  0.89575856  0.55210930  0.66639682    -0.26600
N218        N  0.86915848  0.55810601  0.66220247    -0.34400
C219        C  0.85934496  0.54216166  0.64120363     0.01800
C220        C  0.88101525  0.52551468  0.63150815     0.07800
C221        C  0.90378815  0.53238903  0.64799246    -0.05300
H222        H  0.83836055  0.54347403  0.63286917     0.08400
H223        H  0.92478535  0.52407605  0.64643299     0.09600
Cu224      Cu  0.84899140  0.58937049  0.68412118     0.44200
Cu225      Cu  0.92022261  0.57345442  0.69495714     0.42000
Cu226      Cu  0.89288978  0.63613427  0.72779181     0.43900
N227        N  0.83268214  0.62064385  0.70909646    -0.34000
N228        N  0.84738793  0.63763079  0.72540041    -0.28200
C229        C  0.82875965  0.65427715  0.73911767    -0.04300
C230        C  0.80150597  0.64737264  0.73078946     0.07900
C231        C  0.80512339  0.62598028  0.71181215     0.01700
H232        H  0.83447314  0.67016956  0.75419071     0.09300
H233        H  0.78878694  0.61471841  0.70095886     0.08400
N234        N  0.93730243  0.62607124  0.72584431    -0.35400
N235        N  0.94564813  0.60172333  0.71558083    -0.27600
C236        C  0.97372944  0.60065074  0.71480259    -0.02800
C237        C  0.98479410  0.62539953  0.72490109     0.05800
C238        C  0.96081360  0.64130805  0.73138969     0.03900
H239        H  0.98537845  0.58413446  0.70452333     0.09000
H240        H  0.96059118  0.66311625  0.73743956     0.07800
N241        N  0.10017511  0.59863869  0.63017914    -0.26600
N242        N  0.12740410  0.59571428  0.63304024    -0.34400
C243        C  0.13665463  0.57682783  0.61434507     0.01800
C244        C  0.11392823  0.56674831  0.59922926     0.07800
C245        C  0.09114027  0.58133364  0.60993270    -0.05300
H246        H  0.15822836  0.57023407  0.61290511     0.08400
H247        H  0.06930269  0.57813750  0.60504026     0.09600
Cu248      Cu  0.14877113  0.61372093  0.66605303     0.44200
Cu249      Cu  0.07682718  0.62209056  0.65787568     0.42000
Cu250      Cu  0.10635726  0.63864441  0.72619266     0.43900
N251        N  0.16624666  0.63069638  0.70184328    -0.34000
N252        N  0.15218988  0.63969821  0.72408766    -0.28200
C253        C  0.17145619  0.64992453  0.74244596    -0.04300
C254        C  0.19848681  0.64723712  0.73102534     0.07900
C255        C  0.19390814  0.63493362  0.70531626     0.01700
H256        H  0.16626580  0.65957254  0.76228099     0.09300
H257        H  0.20962623  0.62987764  0.68980778     0.08400
N258        N  0.06138498  0.63724849  0.71746661    -0.35400
N259        N  0.05250447  0.63389741  0.69145407    -0.27600
C260        C  0.02447577  0.63253671  0.69081742    -0.02800
C261        C  0.01388602  0.63489173  0.71756888     0.05800
C262        C  0.03811800  0.63750688  0.73418168     0.03900
H263        H  0.01264773  0.62707276  0.67231359     0.09000
H264        H  0.03873631  0.63753569  0.75680318     0.07800
N265        N  0.62185083  0.60300642  0.90091080    -0.26600
N266        N  0.62527116  0.59890941  0.87379999    -0.34400
C267        C  0.60735662  0.57893972  0.86521077     0.01800
C268        C  0.59214323  0.56973624  0.88815659     0.07800
C269        C  0.60186860  0.58565202  0.91038621    -0.05300
H270        H  0.60708987  0.57014169  0.84433243     0.08400
H271        H  0.59605470  0.58365866  0.93217598     0.09600
Cu272      Cu  0.65783249  0.61730153  0.85169605     0.44200
Cu273      Cu  0.64853915  0.62770279  0.92449866     0.42000
Cu274      Cu  0.71483592  0.64859807  0.89373202     0.43900
N275        N  0.69336098  0.63538958  0.83435501    -0.34000
N276        N  0.71421487  0.64665495  0.84875839    -0.28200
C277        C  0.73310574  0.65670417  0.83010051    -0.04300
C278        C  0.72366642  0.65139857  0.80295783     0.07900
C279        C  0.69839679  0.63795096  0.80672017     0.01700
H280        H  0.75200763  0.66776242  0.83576448     0.09300
H281        H  0.68432218  0.63094115  0.79046141     0.08400
N282        N  0.70675194  0.64858609  0.93801082    -0.35400
N283        N  0.68156761  0.64290514  0.94804349    -0.27600
C284        C  0.68238280  0.64237807  0.97614461    -0.02800
C285        C  0.70928739  0.64791341  0.98511277     0.05800
C286        C  0.72435470  0.65130732  0.96015894     0.03900
H287        H  0.66528229  0.63513558  0.98911365     0.09000
H288        H  0.74682979  0.65325517  0.95828985     0.07800
N289        N  0.68392506  0.54726682  0.09410729    -0.26600
N290        N  0.67861560  0.55063520  0.12098344    -0.34400
C291        C  0.65956664  0.53174836  0.12913007     0.01800
C292        C  0.65212198  0.51587438  0.10612684     0.07800
C293        C  0.66798845  0.52630244  0.08419392    -0.05300
H294        H  0.64997183  0.53132498  0.14965049     0.08400
H295        H  0.66675322  0.52034801  0.06237984     0.09600
Cu296      Cu  0.69300427  0.58432622  0.14340073     0.44200
Cu297      Cu  0.70800726  0.57557359  0.07210087     0.42000
Cu298      Cu  0.72054898  0.64403983  0.10473169     0.43900
N299        N  0.70797243  0.61957851  0.16286458    -0.34000
N300        N  0.71848263  0.64164716  0.14986749    -0.28200
C301        C  0.72773526  0.65955910  0.16990422    -0.04300
C302        C  0.72266252  0.64800915  0.19634640     0.07900
C303        C  0.71007139  0.62274734  0.19075526     0.01700
H304        H  0.73827727  0.67911073  0.16567414     0.09300
H305        H  0.70356327  0.60727004  0.20587331     0.08400
N306        N  0.72136227  0.63630338  0.06014824    -0.35400
N307        N  0.71959154  0.61063731  0.04982904    -0.27600
C308        C  0.71881997  0.61152609  0.02176818    -0.02800
C309        C  0.71987185  0.63895322  0.01301710     0.05800
C310        C  0.72108574  0.65423979  0.03808798     0.03900
H311        H  0.71410690  0.59361346  0.00871906     0.09000
H312        H  0.71949823  0.67672452  0.04010464     0.07800
N313        N  0.89417165  0.58472034  0.35912294    -0.26600
N314        N  0.86737295  0.58181025  0.35352896    -0.34400
C315        C  0.85713970  0.55979260  0.36750405     0.01800
C316        C  0.87873657  0.54806765  0.38264684     0.07800
C317        C  0.90196663  0.56444371  0.37684707    -0.05300
H318        H  0.83582699  0.55237522  0.36588038     0.08400
H319        H  0.92301037  0.56172682  0.38465587     0.09600
Cu320      Cu  0.84756847  0.60671534  0.32533015     0.44200
Cu321      Cu  0.91834981  0.61433524  0.33911319     0.42000
Cu322      Cu  0.88989133  0.64823061  0.27656618     0.43900
N323        N  0.83021894  0.63151814  0.29546609    -0.34000
N324        N  0.84410249  0.64694474  0.27709547    -0.28200
C325        C  0.82450904  0.66005365  0.26116376    -0.04300
C326        C  0.79764197  0.65213266  0.27020145     0.07900
C327        C  0.80246385  0.63415413  0.29193234     0.01700
H328        H  0.82927303  0.67434012  0.24431183     0.09300
H329        H  0.78683662  0.62366827  0.30449873     0.08400
N330        N  0.93456845  0.64493124  0.28596548    -0.35400
N331        N  0.94308085  0.63480920  0.31027372    -0.27600
C332        C  0.97112770  0.63335958  0.31089474    -0.02800
C333        C  0.98206501  0.64272912  0.28588444     0.05800
C334        C  0.95803848  0.64961090  0.27027778     0.03900
H335        H  0.98273576  0.62302695  0.32730975     0.09000
H336        H  0.95770078  0.65543116  0.24842962     0.07800
N337        N  0.09621658  0.54501046  0.31078860    -0.26600
N338        N  0.12277233  0.54944046  0.31662414    -0.34400
C339        C  0.13125066  0.53112365  0.33599375     0.01800
C340        C  0.10879152  0.51436684  0.34312508     0.07800
C341        C  0.08691048  0.52364663  0.32648025    -0.05300
H342        H  0.15135753  0.53205945  0.34630876     0.08400
H343        H  0.06530587  0.51700439  0.32729964     0.09600
Cu344      Cu  0.14379339  0.58407434  0.30314030     0.44200
Cu345      Cu  0.07304229  0.57347195  0.28794094     0.42000
Cu346      Cu  0.10318763  0.64271884  0.27534506     0.43900
N347        N  0.16217984  0.61951969  0.28799420    -0.34000
N348        N  0.14873282  0.64113330  0.27711224    -0.28200
C349        C  0.16857573  0.65911801  0.26753662    -0.04300
C350        C  0.19526195  0.64806018  0.27286695     0.07900
C351        C  0.19001396  0.62304774  0.28592157     0.01700
H352        H  0.16408108  0.67845451  0.25674833     0.09300
H353        H  0.20534767  0.60796686  0.29284822     0.08400
N354        N  0.05843914  0.63393740  0.27502816    -0.35400
N355        N  0.04913363  0.60796107  0.27734753    -0.27600
C356        C  0.02103242  0.60781256  0.27809082    -0.02800
C357        C  0.01096924  0.63482865  0.27623634     0.05800
C358        C  0.03553200  0.65102259  0.27474575     0.03900
H359        H  0.00871861  0.58942639  0.28278977     0.09000
H360        H  0.03658328  0.67360176  0.27558056     0.07800
N361        N  0.62888653  0.82918189  0.31867850    -0.26600
N362        N  0.62873154  0.80167475  0.31972464    -0.34400
C363        C  0.61269304  0.79342668  0.34122566     0.01800
C364        C  0.60270534  0.81700700  0.35502399     0.07800
C365        C  0.61338087  0.83933384  0.33986037    -0.05300
H366        H  0.60985893  0.77178775  0.34699029     0.08400
H367        H  0.61193952  0.86132160  0.34494444     0.09600
Cu368      Cu  0.65645665  0.77767278  0.29709171     0.44200
Cu369      Cu  0.65485530  0.85084699  0.29203833     0.42000
Cu370      Cu  0.71891690  0.81542834  0.27174731     0.43900
N371        N  0.69163788  0.75787450  0.28186114    -0.34000
N372        N  0.71466898  0.77055945  0.27304832    -0.28200
C373        C  0.73293856  0.75038174  0.26492649    -0.04300
C374        C  0.72078743  0.72411373  0.26908517     0.07900
C375        C  0.69461207  0.72996488  0.27974301     0.01700
H376        H  0.75324158  0.75443227  0.25577537     0.09300
H377        H  0.67854804  0.71498317  0.28510827     0.08400
N378        N  0.71360784  0.86018694  0.27122487    -0.35400
N379        N  0.68883381  0.87167726  0.27584131    -0.27600
C380        C  0.69104946  0.89964915  0.27595823    -0.02800
C381        C  0.71856679  0.90707885  0.27151145     0.05800
C382        C  0.73246718  0.88134968  0.26900679     0.03900
H383        H  0.67443966  0.91356375  0.28262141     0.09000
H384        H  0.75487951  0.87832070  0.26800463     0.07800
N385        N  0.69057691  0.01494461  0.37187455    -0.26600
N386        N  0.68356743  0.04119988  0.36729470    -0.34400
C387        C  0.66322227  0.04866255  0.38514694     0.01800
C388        C  0.65676072  0.02596939  0.40191745     0.07800
C389        C  0.67468868  0.00487747  0.39287210    -0.05300
H390        H  0.65235209  0.06847486  0.38427750     0.08400
H391        H  0.67518270  0.98340139  0.39986034     0.09600
Cu392      Cu  0.69818503  0.06407319  0.33389522     0.44200
Cu393      Cu  0.71664993  0.99333136  0.34467981     0.42000
Cu394      Cu  0.72859754  0.02585671  0.27587062     0.43900
N395        N  0.71349735  0.08383073  0.29883419    -0.34000
N396        N  0.72508772  0.07071324  0.27730684    -0.28200
C397        C  0.73425033  0.09051102  0.25920090    -0.04300
C398        C  0.72772987  0.11701919  0.26985104     0.07900
C399        C  0.71477056  0.11169249  0.29506875     0.01700
H400        H  0.74570686  0.08610125  0.24015360     0.09300
H401        H  0.70767706  0.12702654  0.31017159     0.08400
N402        N  0.73059083  0.98161997  0.28382913    -0.35400
N403        N  0.72916136  0.97126818  0.30946576    -0.27600
C404        C  0.72895025  0.94319668  0.30830091    -0.02800
C405        C  0.72996501  0.93455930  0.28072551     0.05800
C406        C  0.73057105  0.95967635  0.26570691     0.03900
H407        H  0.72425844  0.93001999  0.32607841     0.09000
H408        H  0.72849890  0.96176997  0.24327299     0.07800
N409        N  0.90150882  0.23854253  0.62543082    -0.26600
N410        N  0.87447945  0.24233472  0.62927032    -0.34400
C411        C  0.86484948  0.26077998  0.61060532     0.01800
C412        C  0.88701709  0.26947448  0.59423280     0.07800
C413        C  0.91000762  0.25475319  0.60410515    -0.05300
H414        H  0.84395530  0.26949290  0.61104134     0.08400
H415        H  0.93161639  0.25726478  0.59785155     0.09600
Cu416      Cu  0.85396634  0.22795116  0.66372685     0.44200
Cu417      Cu  0.92540611  0.21737855  0.65454771     0.42000
Cu418      Cu  0.89400901  0.20360786  0.72374127     0.43900
N419        N  0.83543566  0.21333020  0.69919715    -0.34000
N420        N  0.84875986  0.20383334  0.72149638    -0.28200
C421        C  0.82897924  0.19400992  0.73939184    -0.04300
C422        C  0.80245571  0.19772607  0.72748132     0.07900
C423        C  0.80769068  0.21002051  0.70209157     0.01700
H424        H  0.83348107  0.18380526  0.75904157     0.09300
H425        H  0.79247472  0.21512116  0.68618415     0.08400
N426        N  0.93856924  0.20469125  0.71548061    -0.35400
N427        N  0.94849559  0.20748071  0.68973200    -0.27600
C428        C  0.97653772  0.20903547  0.69032976    -0.02800
C429        C  0.98573380  0.20724344  0.71760871     0.05800
C430        C  0.96089197  0.20491732  0.73316792     0.03900
H431        H  0.98927272  0.21417263  0.67231952     0.09000
H432        H  0.95916769  0.20547074  0.75573129     0.07800
N433        N  0.10024024  0.29659771  0.67388760    -0.26600
N434        N  0.12702157  0.29165190  0.66972647    -0.34400
C435        C  0.13639239  0.30821920  0.64910687     0.01800
C436        C  0.11417869  0.32416713  0.63913075     0.07800
C437        C  0.09157823  0.31604750  0.65562076    -0.05300
H438        H  0.15772623  0.30782590  0.64171385     0.08400
H439        H  0.06997875  0.32230504  0.65355720     0.09600
Cu440      Cu  0.14784056  0.25963219  0.68974578     0.44200
Cu441      Cu  0.07655681  0.27351360  0.70164324     0.42000
Cu442      Cu  0.10556832  0.20877583  0.72938240     0.43900
N443        N  0.16504843  0.22649918  0.71134692    -0.34000
N444        N  0.15081942  0.20803073  0.72635195    -0.28200
C445        C  0.16978592  0.19066099  0.73840076    -0.04300
C446        C  0.19681191  0.19855324  0.73020991     0.07900
C447        C  0.19269058  0.22136773  0.71319835     0.01700
H448        H  0.16446485  0.17375779  0.75242258     0.09300
H449        H  0.20875654  0.23387576  0.70334548     0.08400
N450        N  0.06124733  0.21818673  0.72812201    -0.35400
N451        N  0.05220979  0.24307881  0.72013444    -0.27600
C452        C  0.02413814  0.24325048  0.71906974    -0.02800
C453        C  0.01396200  0.21730118  0.72652187     0.05800
C454        C  0.03829682  0.20170714  0.73180459     0.03900
H455        H  0.01204717  0.26008504  0.71003138     0.09000
H456        H  0.03922058  0.17943537  0.73557051     0.07800
N457        N  0.33405524  0.82283743  0.64289115    -0.26600
N458        N  0.33943902  0.79634548  0.64797895    -0.34400
C459        C  0.36166353  0.78824469  0.63272319     0.01800
C460        C  0.37097806  0.81101442  0.61736909     0.07800
C461        C  0.35291148  0.83262241  0.62453671    -0.05300
H462        H  0.37023706  0.76732965  0.63289401     0.08400
H463        H  0.35382807  0.85414207  0.61774345     0.09600
Cu464      Cu  0.31672907  0.77448434  0.67710614     0.44200
Cu465      Cu  0.30282884  0.84427233  0.66363084     0.42000
Cu466      Cu  0.27490376  0.81661253  0.72794710     0.43900
N467        N  0.29188426  0.75701234  0.70749879    -0.34000
N468        N  0.27684776  0.77078366  0.72643228    -0.28200
C469        C  0.26374036  0.75112486  0.74232610    -0.04300
C470        C  0.27095407  0.72428810  0.73264613     0.07900
C471        C  0.28872837  0.72921761  0.71059554     0.01700
H472        H  0.24967789  0.75584561  0.75945802     0.09300
H473        H  0.29872625  0.71362497  0.69753585     0.08400
N474        N  0.27556272  0.86134053  0.71804700    -0.35400
N475        N  0.28259455  0.86914151  0.69245650    -0.27600
C476        C  0.28285186  0.89709548  0.69053501    -0.02800
C477        C  0.27631258  0.90892617  0.71610598     0.05800
C478        C  0.27201413  0.88533735  0.73335488     0.03900
H479        H  0.29108297  0.90817351  0.67259608     0.09000
H480        H  0.26893549  0.88573455  0.75578065     0.07800
N481        N  0.35848506  0.02245065  0.66000592    -0.26600
N482        N  0.35632990  0.04967333  0.65675922    -0.34400
C483        C  0.37214544  0.05745121  0.63476691     0.01800
C484        C  0.38465280  0.03370329  0.62319381     0.07800
C485        C  0.37512688  0.01193844  0.63994721    -0.05300
H486        H  0.37408965  0.07883885  0.62786182     0.08400
H487        H  0.37897388  0.98982972  0.63748092     0.09600
Cu488      Cu  0.32905861  0.07273337  0.68147467     0.44200
Cu489      Cu  0.33693021  0.00100113  0.69056088     0.42000
Cu490      Cu  0.27632922  0.03093631  0.72295622     0.43900
N491        N  0.29765904  0.09033847  0.70587059    -0.34000
N492        N  0.27833460  0.07660147  0.72039596    -0.28200
C493        C  0.26192489  0.09618205  0.73307487    -0.04300
C494        C  0.27141257  0.12303833  0.72609143     0.07900
C495        C  0.29415122  0.11816143  0.70900686     0.01700
H496        H  0.24468328  0.09136988  0.74694062     0.09300
H497        H  0.30753892  0.13382512  0.69968965     0.08400
N498        N  0.28469587  0.98597018  0.72261809    -0.35400
N499        N  0.30917361  0.97710824  0.71320187    -0.27600
C500        C  0.31025790  0.94909672  0.71357944    -0.02800
C501        C  0.28518173  0.93836877  0.72317139     0.05800
C502        C  0.26916515  0.96266083  0.72850046     0.03900
H503        H  0.32698628  0.93714283  0.70401277     0.09000
H504        H  0.24719500  0.96315330  0.73395795     0.07800
N505        N  0.67558901  0.29068257  0.90086107    -0.26600
N506        N  0.66842247  0.28478250  0.87489135    -0.34400
C507        C  0.64825022  0.30243402  0.86663876     0.01800
C508        C  0.64217888  0.32030719  0.88863998     0.07800
C509        C  0.66001634  0.31225676  0.91001464    -0.05300
H510        H  0.63764115  0.30115764  0.84670580     0.08400
H511        H  0.66088681  0.32063254  0.93103241     0.09600
Cu512      Cu  0.68478215  0.25136011  0.85342660     0.44200
Cu513      Cu  0.70254032  0.26559617  0.92348224     0.42000
Cu514      Cu  0.72439101  0.19918318  0.89282054     0.43900
N515        N  0.70689678  0.21977372  0.83448573    -0.34000
N516        N  0.72194609  0.20069713  0.84774793    -0.28200
C517        C  0.73498447  0.18497190  0.82795501    -0.04300
C518        C  0.72756678  0.19480743  0.80143819     0.07900
C519        C  0.70983559  0.21684632  0.80663469     0.01700
H520        H  0.74933153  0.16807059  0.83240051     0.09300
H521        H  0.70033132  0.23039960  0.79126407     0.08400
N522        N  0.72372245  0.20753722  0.93721290    -0.35400
N523        N  0.71800990  0.23283044  0.94699672    -0.27600
C524        C  0.71702805  0.23231191  0.97508031    -0.02800
C525        C  0.72222016  0.20550007  0.98438284     0.05800
C526        C  0.72597223  0.19014899  0.95959641     0.03900
H527        H  0.70962743  0.24957436  0.98777946     0.09000
H528        H  0.72783908  0.16765767  0.95798436     0.07800
N529        N  0.62590215  0.23946968  0.09420315    -0.26600
N530        N  0.63047180  0.24593832  0.12065106    -0.34400
C531        C  0.61321473  0.26680212  0.12817577     0.01800
C532        C  0.59707697  0.27407249  0.10526745     0.07800
C533        C  0.60576102  0.25627355  0.08402376    -0.05300
H534        H  0.61363167  0.27706850  0.14836355     0.08400
H535        H  0.59877026  0.25618059  0.06251485     0.09600
Cu536      Cu  0.66258881  0.22865747  0.14386028     0.44200
Cu537      Cu  0.65112302  0.21174065  0.07259013     0.42000
Cu538      Cu  0.71866606  0.19514774  0.10410606     0.43900
N539        N  0.69647611  0.20970337  0.16293643    -0.34000
N540        N  0.71720985  0.19727203  0.14926849    -0.28200
C541        C  0.73474301  0.18626662  0.16865761    -0.04300
C542        C  0.72446869  0.19214510  0.19548410     0.07900
C543        C  0.70018960  0.20701066  0.19076220     0.01700
H544        H  0.75321931  0.17413873  0.16371987     0.09300
H545        H  0.68580317  0.21477803  0.20645818     0.08400
N546        N  0.71060615  0.19441457  0.05963513    -0.35400
N547        N  0.68498128  0.19764790  0.04969729    -0.27600
C548        C  0.68563954  0.19822525  0.02161647    -0.02800
C549        C  0.71289738  0.19545714  0.01244114     0.05800
C550        C  0.72832375  0.19347629  0.03731345     0.03900
H551        H  0.66791508  0.20401077  0.00882204     0.09000
H552        H  0.75088616  0.19378522  0.03900526     0.07800
N553        N  0.31893780  0.54835622  0.90487148    -0.26600
N554        N  0.32442233  0.55219372  0.87810775    -0.34400
C555        C  0.34391059  0.53362009  0.86987801     0.01800
C556        C  0.35130787  0.51757744  0.89278423     0.07800
C557        C  0.33502144  0.52752363  0.91461769    -0.05300
H558        H  0.35354797  0.53329428  0.84936956     0.08400
H559        H  0.33587512  0.52117849  0.93630870     0.09600
Cu560      Cu  0.30819050  0.58572799  0.85637618     0.44200
Cu561      Cu  0.29405785  0.57537775  0.92752819     0.42000
Cu562      Cu  0.27795578  0.64345642  0.89868219     0.43900
N563        N  0.28990547  0.62083224  0.83912057    -0.34000
N564        N  0.27879101  0.64197106  0.85333750    -0.28200
C565        C  0.26776017  0.65996092  0.83435303    -0.04300
C566        C  0.27230581  0.64954260  0.80729558     0.07900
C567        C  0.28629884  0.62471048  0.81146438     0.01700
H568        H  0.25638665  0.67877881  0.83974815     0.09300
H569        H  0.29267701  0.60995393  0.79548616     0.08400
N570        N  0.27794694  0.63445573  0.94308891    -0.35400
N571        N  0.28127318  0.60849756  0.95199727    -0.27600
C572        C  0.28218869  0.60799698  0.98004814    -0.02800
C573        C  0.27948501  0.63481243  0.99037808     0.05800
C574        C  0.27721531  0.65126422  0.96615535     0.03900
H575        H  0.28789509  0.58970445  0.99204452     0.09000
H576        H  0.27735413  0.67387040  0.96540545     0.07800
N577        N  0.37589261  0.59993212  0.10634628    -0.26600
N578        N  0.37323319  0.59896771  0.13376772    -0.34400
C579        C  0.39240579  0.58129519  0.14421228     0.01800
C580        C  0.40777325  0.57012770  0.12214160     0.07800
C581        C  0.39662858  0.58264575  0.09845890    -0.05300
H582        H  0.39395927  0.57609747  0.16613949     0.08400
H583        H  0.40163019  0.57794650  0.07688058     0.09600
Cu584      Cu  0.34009418  0.61775740  0.15414574     0.44200
Cu585      Cu  0.34797340  0.62128073  0.08118476     0.42000
Cu586      Cu  0.28209351  0.64552958  0.11044227     0.43900
N587        N  0.30384101  0.63485430  0.17033359    -0.34000
N588        N  0.28283402  0.64527996  0.15556684    -0.28200
C589        C  0.26378079  0.65556707  0.17398703    -0.04300
C590        C  0.27319778  0.65094073  0.20126052     0.07900
C591        C  0.29866698  0.63789627  0.19786655     0.01700
H592        H  0.24473519  0.66621813  0.16807015     0.09300
H593        H  0.31287388  0.63164749  0.21428759     0.08400
N594        N  0.29066730  0.64382323  0.06615484    -0.35400
N595        N  0.31574215  0.63662987  0.05679566    -0.27600
C596        C  0.31567126  0.63582445  0.02870589    -0.02800
C597        C  0.28940294  0.64277444  0.01893547     0.05800
C598        C  0.27383295  0.64728573  0.04347423     0.03900
H599        H  0.33286060  0.62787419  0.01623403     0.09000
H600        H  0.25149669  0.65076083  0.04469086     0.07800
N601        N  0.32286997  0.82769654  0.36706577    -0.26600
N602        N  0.32655300  0.80055642  0.36415111    -0.34400
C603        C  0.34901431  0.79263607  0.37890499     0.01800
C604        C  0.36045326  0.81613207  0.39147985     0.07800
C605        C  0.34317294  0.83802079  0.38349682    -0.05300
H606        H  0.35671818  0.77139794  0.37968009     0.08400
H607        H  0.34596304  0.86004192  0.38786218     0.09600
Cu608      Cu  0.30378971  0.77726571  0.33622183     0.44200
Cu609      Cu  0.29328444  0.84911320  0.34432189     0.42000
Cu610      Cu  0.27092782  0.81676518  0.27911530     0.43900
N611        N  0.28356460  0.75844933  0.30333694    -0.34000
N612        N  0.27173574  0.77170766  0.28210734    -0.28200
C613        C  0.26093138  0.75194350  0.26480837    -0.04300
C614        C  0.26638936  0.72542485  0.27585675     0.07900
C615        C  0.28075689  0.73063595  0.30021122     0.01700
H616        H  0.24963758  0.75641837  0.24575452     0.09300
H617        H  0.28868120  0.71527514  0.31475856     0.08400
N618        N  0.27168282  0.86132664  0.28642661    -0.35400
N619        N  0.27648645  0.87148515  0.31173732    -0.27600
C620        C  0.27771133  0.89947474  0.31086239    -0.02800
C621        C  0.27403600  0.90839060  0.28370626     0.05800
C622        C  0.27054139  0.88343456  0.26858055     0.03900
H623        H  0.28499664  0.91224369  0.32809340     0.09000
H624        H  0.26988656  0.88146273  0.24604181     0.07800
N625        N  0.37089997  0.01716267  0.32442114    -0.26600
N626        N  0.36736953  0.04417877  0.32872891    -0.34400
C627        C  0.38446182  0.05257626  0.34937306     0.01800
C628        C  0.39942237  0.02960403  0.35881740     0.07800
C629        C  0.39025478  0.00749981  0.34235933    -0.05300
H630        H  0.38540960  0.07377474  0.35722162     0.08400
H631        H  0.39603494  0.98572212  0.34424945     0.09600
Cu632      Cu  0.33710789  0.06708477  0.30821381     0.44200
Cu633      Cu  0.34597180  0.99475734  0.29702975     0.42000
Cu634      Cu  0.28150890  0.02719718  0.27277305     0.43900
N635        N  0.30429773  0.08571455  0.28724676    -0.34000
N636        N  0.28376830  0.07208071  0.27454097    -0.28200
C637        C  0.26636916  0.09141200  0.26332759    -0.04300
C638        C  0.27658391  0.11811792  0.26930252     0.07900
C639        C  0.30062333  0.11350009  0.28443946     0.01700
H640        H  0.24779696  0.08650353  0.25140253     0.09300
H641        H  0.31456979  0.12922085  0.29279366     0.08400
N642        N  0.28863026  0.98281378  0.27302869    -0.35400
N643        N  0.31344989  0.97236997  0.27937782    -0.27600
C644        C  0.31212105  0.94434469  0.27987462    -0.02800
C645        C  0.28517404  0.93578982  0.27391397     0.05800
C646        C  0.27066945  0.96096548  0.27000928     0.03900
H647        H  0.32869984  0.93118992  0.28785087     0.09000
H648        H  0.24826838  0.96321806  0.26775730     0.07800
N649        N  0.90051797  0.24140465  0.36385775    -0.26600
N650        N  0.87334239  0.24287117  0.35988213    -0.34400
C651        C  0.86281632  0.26469407  0.37386869     0.01800
C652        C  0.88455356  0.27789261  0.38740079     0.07800
C653        C  0.90830278  0.26256182  0.38068095    -0.05300
H654        H  0.84134005  0.27167258  0.37233430     0.08400
H655        H  0.92969630  0.26714717  0.38640316     0.09600
Cu656      Cu  0.85369942  0.21998542  0.33032376     0.44200
Cu657      Cu  0.92436861  0.21415017  0.34041439     0.42000
Cu658      Cu  0.89388344  0.19170887  0.27247793     0.43900
N659        N  0.83520007  0.20461413  0.29558033    -0.34000
N660        N  0.84831640  0.19389166  0.27362686    -0.28200
C661        C  0.82809888  0.18509792  0.25563164    -0.04300
C662        C  0.80163935  0.19109774  0.26710958     0.07900
C663        C  0.80737737  0.20336289  0.29237026     0.01700
H664        H  0.83214551  0.17415436  0.23621146     0.09300
H665        H  0.79234332  0.20992761  0.30801188     0.08400
N666        N  0.93840491  0.19191190  0.28238688    -0.35400
N667        N  0.94738391  0.19719834  0.30807823    -0.27600
C668        C  0.97541911  0.19728610  0.30867341    -0.02800
C669        C  0.98581992  0.19223162  0.28222930     0.05800
C670        C  0.96157573  0.18921218  0.26584713     0.03900
H671        H  0.98748257  0.20414674  0.32655613     0.09000
H672        H  0.96094002  0.18746851  0.24329145     0.07800
N673        N  0.09886869  0.27217185  0.33677855    -0.26600
N674        N  0.12328462  0.26299961  0.34568960    -0.34400
C675        C  0.13112263  0.27777245  0.36821100     0.01800
C676        C  0.11037397  0.29705162  0.37403161     0.07800
C677        C  0.09016334  0.29291353  0.35371928    -0.05300
H678        H  0.15023641  0.27429279  0.37978027     0.08400
H679        H  0.07058604  0.30402901  0.35145223     0.09600
Cu680      Cu  0.14416426  0.23088251  0.32661722     0.44200
Cu681      Cu  0.07815168  0.25359742  0.30366349     0.42000
Cu682      Cu  0.10608180  0.18942398  0.27478295     0.43900
N683        N  0.16376528  0.20518080  0.29856872    -0.34000
N684        N  0.15108591  0.19030543  0.27891348    -0.28200
C685        C  0.17139346  0.17851859  0.26287578    -0.04300
C686        C  0.19757519  0.18669731  0.27307736     0.07900
C687        C  0.19169350  0.20341826  0.29570856     0.01700
H688        H  0.16753251  0.16541102  0.24482116     0.09300
H689        H  0.20664257  0.21422585  0.30879709     0.08400
N690        N  0.06209864  0.19982409  0.27448777    -0.35400
N691        N  0.05376614  0.22505720  0.28226401    -0.27600
C692        C  0.02573481  0.22644373  0.28195227    -0.02800
C693        C  0.01477470  0.20090415  0.27399981     0.05800
C694        C  0.03868211  0.18427403  0.26973774     0.03900
H695        H  0.01397538  0.24371169  0.29075126     0.09000
H696        H  0.03886936  0.16195696  0.26599742     0.07800
N697        N  0.37308464  0.23848113  0.90548546    -0.26600
N698        N  0.37078613  0.24299082  0.87838273    -0.34400
C699        C  0.38909790  0.26287259  0.87079151     0.01800
C700        C  0.40350491  0.27163849  0.89435641     0.07800
C701        C  0.39276742  0.25562270  0.91602507    -0.05300
H702        H  0.39019039  0.27187725  0.85008120     0.08400
H703        H  0.39778799  0.25726304  0.93802171     0.09600
Cu704      Cu  0.33897642  0.22592043  0.85466095     0.44200
Cu705      Cu  0.34502183  0.21351427  0.92687979     0.42000
Cu706      Cu  0.27740563  0.20126032  0.89357116     0.43900
N707        N  0.30348619  0.21076245  0.83516660    -0.34000
N708        N  0.28071032  0.20196126  0.84833672    -0.28200
C709        C  0.26240496  0.19312478  0.82849351    -0.04300
C710        C  0.27429586  0.19662236  0.80189527     0.07900
C711        C  0.30034786  0.20781815  0.80729339     0.01700
H712        H  0.24224765  0.18390066  0.83300241     0.09300
H713        H  0.31621024  0.21306049  0.79202557     0.08400
N714        N  0.28426173  0.19993398  0.93834929    -0.35400
N715        N  0.30985861  0.20124304  0.94878686    -0.27600
C716        C  0.30877904  0.20126773  0.97685476    -0.02800
C717        C  0.28126842  0.20028396  0.98559744     0.05800
C718        C  0.26614634  0.19988774  0.96040647     0.03900
H719        H  0.32664999  0.20555565  0.99004141     0.09000
H720        H  0.24368662  0.20176333  0.95838279     0.07800
N721        N  0.32453326  0.29308054  0.09898606    -0.26600
N722        N  0.32706745  0.28947868  0.12613928    -0.34400
C723        C  0.34636770  0.30726961  0.13606509     0.01800
C724        C  0.35724029  0.32280910  0.11393065     0.07800
C725        C  0.34260306  0.31294094  0.09068819    -0.05300
H726        H  0.35219908  0.30792331  0.15782451     0.08400
H727        H  0.34561966  0.31844726  0.06900829     0.09600
Cu728      Cu  0.30683674  0.25770772  0.14718106     0.44200
Cu729      Cu  0.29852439  0.26817835  0.07495935     0.42000
Cu730      Cu  0.27150500  0.20338057  0.10559972     0.43900
N731        N  0.28701034  0.22373637  0.16495643    -0.34000
N732        N  0.27385854  0.20375509  0.15090867    -0.28200
C733        C  0.26300189  0.18580294  0.17006654    -0.04300
C734        C  0.26993764  0.19497073  0.19705479     0.07900
C735        C  0.28506354  0.21907637  0.19268412     0.01700
H736        H  0.25065223  0.16757243  0.16489294     0.09300
H737        H  0.29376041  0.23260306  0.20860544     0.08400
N738        N  0.27215958  0.21217579  0.06113902    -0.35400
N739        N  0.27964583  0.23704025  0.05158607    -0.27600
C740        C  0.27981733  0.23684502  0.02348579    -0.02800
C741        C  0.27244789  0.21064045  0.01380938     0.05800
C742        C  0.26811538  0.19531519  0.03848870     0.03900
H743        H  0.28835381  0.25360534  0.01092612     0.09000
H744        H  0.26468044  0.17299985  0.03977786     0.07800
N745        N  0.12579693  0.31939786  0.18046014    -0.26600
N746        N  0.13022812  0.29234450  0.17750813    -0.34400
C747        C  0.11369515  0.28225554  0.15724762     0.01800
C748        C  0.09807778  0.30412472  0.14669824     0.07800
C749        C  0.10617604  0.32740038  0.16202101    -0.05300
H750        H  0.11398755  0.26081025  0.14999827     0.08400
H751        H  0.09981120  0.34884182  0.15865761     0.09600
Cu752      Cu  0.16173369  0.27180365  0.19776950     0.44200
Cu753      Cu  0.15093611  0.34394800  0.20572506     0.42000
Cu754      Cu  0.21792294  0.31373213  0.22823895     0.43900
N755        N  0.19633731  0.25419832  0.21567442    -0.34000
N756        N  0.21747181  0.26826535  0.22676875    -0.28200
C757        C  0.23602627  0.24902614  0.23640818    -0.04300
C758        C  0.22582845  0.22205335  0.23092371     0.07900
C759        C  0.20064730  0.22649233  0.21784025     0.01700
H760        H  0.25527265  0.25412438  0.24712093     0.09300
H761        H  0.18620796  0.21066689  0.21059057     0.08400
N762        N  0.20876232  0.35828817  0.22764180    -0.35400
N763        N  0.18341363  0.36771510  0.22164899    -0.27600
C764        C  0.18347475  0.39581581  0.22113181    -0.02800
C765        C  0.21000453  0.40565760  0.22693153     0.05800
C766        C  0.22569708  0.38104490  0.23052591     0.03900
H767        H  0.16608234  0.40824582  0.21373164     0.09000
H768        H  0.24817610  0.37985637  0.23279697     0.07800
N769        N  0.18562324  0.51923468  0.12781438    -0.26600
N770        N  0.18396799  0.54656422  0.13088611    -0.34400
C771        C  0.16447010  0.55670609  0.11355218     0.01800
C772        C  0.15270761  0.53454687  0.09910440     0.07800
C773        C  0.16693065  0.51107266  0.10844783    -0.05300
H774        H  0.15769053  0.57828569  0.11344007     0.08400
H775        H  0.16186642  0.48948435  0.10392772     0.09600
Cu776      Cu  0.20169740  0.56696386  0.16410177     0.44200
Cu777      Cu  0.20740377  0.49499208  0.15611612     0.42000
Cu778      Cu  0.22441727  0.52616172  0.22472248     0.43900
N779        N  0.21561310  0.58518095  0.20030530    -0.34000
N780        N  0.22461137  0.57169880  0.22273144    -0.28200
C781        C  0.23333921  0.59148492  0.24128447    -0.04300
C782        C  0.22916809  0.61821796  0.22983876     0.07900
C783        C  0.21787001  0.61296675  0.20393620     0.01700
H784        H  0.24270408  0.58689586  0.26133174     0.09300
H785        H  0.21215377  0.62830411  0.18839098     0.08400
N786        N  0.22242973  0.48137584  0.21636121    -0.35400
N787        N  0.21857679  0.47165663  0.19066532    -0.27600
C788        C  0.21690574  0.44362413  0.19101230    -0.02800
C789        C  0.21969045  0.43409753  0.21806673     0.05800
C790        C  0.22271877  0.45882333  0.23379631     0.03900
H791        H  0.21105668  0.43111446  0.17305467     0.09000
H792        H  0.22311285  0.46029476  0.25638004     0.07800
N793        N  0.40302602  0.10907663  0.12065900    -0.26600
N794        N  0.37663391  0.10274435  0.12561176    -0.34400
C795        C  0.36890288  0.08179358  0.10858763     0.01800
C796        C  0.39158896  0.07434680  0.09204423     0.07800
C797        C  0.41288698  0.09227304  0.10028663    -0.05300
H798        H  0.34886204  0.07137300  0.10977837     0.08400
H799        H  0.43436187  0.09227316  0.09313542     0.09600
Cu800      Cu  0.35406982  0.11960209  0.15842733     0.44200
Cu801      Cu  0.42549327  0.13534941  0.14659441     0.42000
Cu802      Cu  0.39472038  0.14875270  0.21569201     0.43900
N803        N  0.33563765  0.13620087  0.19388497    -0.34000
N804        N  0.34964685  0.14682573  0.21529765    -0.28200
C805        C  0.33057653  0.15607134  0.23427721    -0.04300
C806        C  0.30359652  0.15087418  0.22420497     0.07900
C807        C  0.30790778  0.13836629  0.19851598     0.01700
H808        H  0.33582211  0.16650749  0.25366548     0.09300
H809        H  0.29197636  0.13169787  0.18392355     0.08400
N810        N  0.43896351  0.14941886  0.20681954    -0.35400
N811        N  0.44879602  0.14714865  0.18098486    -0.27600
C812        C  0.47689021  0.14617370  0.18143362    -0.02800
C813        C  0.48605327  0.14777658  0.20873803     0.05800
C814        C  0.46128245  0.14939734  0.22439409     0.03900
H815        H  0.48965092  0.14107635  0.16339176     0.09000
H816        H  0.45963487  0.14829044  0.24694165     0.07800
N817        N  0.59728293  0.04562171  0.18166461    -0.26600
N818        N  0.62386719  0.05015290  0.17596235    -0.34400
C819        C  0.63227892  0.03253310  0.15577689     0.01800
C820        C  0.60983428  0.01587758  0.14807843     0.07800
C821        C  0.58802724  0.02466141  0.16535077    -0.05300
H822        H  0.65247221  0.03385096  0.14564581     0.08400
H823        H  0.56648539  0.01788469  0.16491981     0.09600
Cu824      Cu  0.64558703  0.08352622  0.19175197     0.44200
Cu825      Cu  0.57368407  0.07364200  0.20502334     0.42000
Cu826      Cu  0.60523641  0.14197712  0.21968497     0.43900
N827        N  0.66387596  0.11825818  0.20894152    -0.34000
N828        N  0.65009744  0.13990690  0.21945666    -0.28200
C829        C  0.66928809  0.15783705  0.23010239    -0.04300
C830        C  0.69602559  0.14673483  0.22589606     0.07900
C831        C  0.69155553  0.12169172  0.21243785     0.01700
H832        H  0.66423420  0.17713153  0.24083242     0.09300
H833        H  0.70725872  0.10666233  0.20610072     0.08400
N834        N  0.56099672  0.13427714  0.21919468    -0.35400
N835        N  0.55063262  0.10879482  0.21596488    -0.27600
C836        C  0.52254895  0.11005894  0.21498956    -0.02800
C837        C  0.51404109  0.13753053  0.21775549     0.05800
C838        C  0.53913746  0.15244453  0.21987837     0.03900
H839        H  0.50931167  0.09249851  0.20964555     0.09000
H840        H  0.54132570  0.17496035  0.21991560     0.07800
N841        N  0.40545139  0.06049781  0.82095140    -0.26600
N842        N  0.37951100  0.06642807  0.82827493    -0.34400
C843        C  0.37187890  0.05003829  0.84971383     0.01800
C844        C  0.39425758  0.03296050  0.85644085     0.07800
C845        C  0.41526534  0.04024279  0.83776820    -0.05300
H846        H  0.35184990  0.05123962  0.86023362     0.08400
H847        H  0.43621055  0.03174828  0.83665960     0.09600
Cu848      Cu  0.35700358  0.09782723  0.80961300     0.44200
Cu849      Cu  0.42629769  0.08315885  0.79055058     0.42000
Cu850      Cu  0.39524617  0.14898297  0.76744914     0.43900
N851        N  0.33751392  0.12880807  0.78725224    -0.34000
N852        N  0.35041177  0.14760392  0.77151594    -0.28200
C853        C  0.33038510  0.16348825  0.75928232    -0.04300
C854        C  0.30407447  0.15411738  0.76800615     0.07900
C855        C  0.30962144  0.13213076  0.78559432     0.01700
H856        H  0.33452213  0.18039456  0.74487189     0.09300
H857        H  0.29444067  0.11910644  0.79614303     0.08400
N858        N  0.43936291  0.14011897  0.76632114    -0.35400
N859        N  0.44896292  0.11474148  0.77169912    -0.27600
C860        C  0.47702102  0.11493639  0.77156181    -0.02800
C861        C  0.48654256  0.14169967  0.76641683     0.05800
C862        C  0.46186754  0.15729013  0.76345395     0.03900
H863        H  0.48963338  0.09769903  0.77900515     0.09000
H864        H  0.46046062  0.17982590  0.76213841     0.07800
N865        N  0.59394369  0.09652563  0.85889955    -0.26600
N866        N  0.62048024  0.09036517  0.85448792    -0.34400
C867        C  0.62809499  0.06956632  0.87165436     0.01800
C868        C  0.60505201  0.06206713  0.88749174     0.07800
C869        C  0.58367445  0.07949359  0.87875291    -0.05300
H870        H  0.64866829  0.06012270  0.87201766     0.08400
H871        H  0.56227846  0.07977383  0.88619089     0.09600
Cu872      Cu  0.64388120  0.10988257  0.82416529     0.44200
Cu873      Cu  0.57339586  0.12643878  0.83570035     0.42000
Cu874      Cu  0.60591769  0.15113426  0.77156328     0.43900
N875        N  0.66358721  0.13259504  0.79344126    -0.34000
N876        N  0.65078860  0.14779144  0.77415797    -0.28200
C877        C  0.67090380  0.16037113  0.75861253    -0.04300
C878        C  0.69717113  0.15250972  0.76869618     0.07900
C879        C  0.69151737  0.13503200  0.79078373     0.01700
H880        H  0.66683766  0.17464829  0.74158361     0.09300
H881        H  0.70662439  0.12518329  0.80439128     0.08400
N882        N  0.56149741  0.15169718  0.77913333    -0.35400
N883        N  0.55134797  0.14566213  0.80416708    -0.27600
C884        C  0.52331887  0.14559357  0.80345016    -0.02800
C885        C  0.51436177  0.15132342  0.77665024     0.05800
C886        C  0.53934094  0.15483057  0.76157699     0.03900
H887        H  0.51038206  0.13776413  0.82030729     0.09000
H888        H  0.54120524  0.15682084  0.73911099     0.07800
N889        N  0.39479841  0.79771201  0.17702121    -0.26600
N890        N  0.36873136  0.79209040  0.16998023    -0.34400
C891        C  0.36141138  0.80855649  0.14839540     0.01800
C892        C  0.38408948  0.82537483  0.14136594     0.07800
C893        C  0.40478393  0.81790687  0.16025381    -0.05300
H894        H  0.34161458  0.80709643  0.13759134     0.08400
H895        H  0.42598246  0.82568899  0.16120835     0.09600
Cu896      Cu  0.34625103  0.75994515  0.18866004     0.44200
Cu897      Cu  0.41735263  0.77345284  0.20477623     0.42000
Cu898      Cu  0.38895291  0.70688626  0.22548047     0.43900
N899        N  0.32926647  0.72664289  0.21084318    -0.34000
N900        N  0.34402935  0.70737942  0.22422608    -0.28200
C901        C  0.32575478  0.68971753  0.23675880    -0.04300
C902        C  0.29847132  0.69824838  0.23088399     0.07900
C903        C  0.30170245  0.72173981  0.21446893     0.01700
H904        H  0.33178942  0.67209945  0.24954514     0.09300
H905        H  0.28516415  0.73458310  0.20596998     0.08400
N906        N  0.43299132  0.71568748  0.22499348    -0.35400
N907        N  0.44211167  0.74119735  0.21949603    -0.27600
C908        C  0.47017304  0.74116877  0.21814860    -0.02800
C909        C  0.48010505  0.71445217  0.22294077     0.05800
C910        C  0.45572285  0.69865640  0.22691806     0.03900
H911        H  0.48241724  0.75873846  0.21084859     0.09000
H912        H  0.45457827  0.67612823  0.22853988     0.07800
N913        N  0.59543369  0.75540373  0.13637250    -0.26600
N914        N  0.62036225  0.76367541  0.14473703    -0.34400
C915        C  0.62904076  0.78483962  0.12846075     0.01800
C916        C  0.60833762  0.79026581  0.10898325     0.07800
C917        C  0.58734807  0.77114866  0.11465817    -0.05300
H918        H  0.64859099  0.79588154  0.13116079     0.08400
H919        H  0.56748676  0.76899102  0.10408732     0.09600
Cu920      Cu  0.64047754  0.74506320  0.17780122     0.44200
Cu921      Cu  0.57251939  0.72560109  0.15735928     0.42000
Cu922      Cu  0.59947972  0.69677154  0.22136260     0.43900
N923        N  0.65845523  0.71704935  0.20495903    -0.34000
N924        N  0.64466297  0.69856602  0.22032876    -0.28200
C925        C  0.66401892  0.68266668  0.23365150    -0.04300
C926        C  0.69083636  0.69178287  0.22616221     0.07900
C927        C  0.68622368  0.71363814  0.20810364     0.01700
H928        H  0.65908001  0.66593693  0.24801473     0.09300
H929        H  0.70197657  0.72618297  0.19781465     0.08400
N930        N  0.55533205  0.70034779  0.21255478    -0.35400
N931        N  0.54691079  0.70880862  0.18762925    -0.27600
C932        C  0.51900451  0.71174425  0.18741268    -0.02800
C933        C  0.50833491  0.70498445  0.21335810     0.05800
C934        C  0.53214987  0.69805860  0.22903830     0.03900
H935        H  0.50753192  0.72130720  0.17044135     0.09000
H936        H  0.53271048  0.69404840  0.25129306     0.07800
N937        N  0.82139460  0.32138420  0.13171193    -0.26600
N938        N  0.82909804  0.29618010  0.13969343    -0.34400
C939        C  0.85015082  0.28711145  0.12352138     0.01800
C940        C  0.85631415  0.30779125  0.10441981     0.07800
C941        C  0.83768463  0.32931790  0.11019732    -0.05300
H942        H  0.86108456  0.26754001  0.12651195     0.08400
H943        H  0.83660532  0.34953591  0.10017235     0.09600
Cu944      Cu  0.81210193  0.27651494  0.17334723     0.44200
Cu945      Cu  0.79189608  0.34426391  0.15381609     0.42000
Cu946      Cu  0.76595236  0.31491710  0.21977155     0.43900
N947        N  0.78874976  0.25715396  0.20313283    -0.34000
N948        N  0.77078056  0.26985388  0.22003339    -0.28200
C949        C  0.75747689  0.24953431  0.23473673    -0.04300
C950        C  0.76793439  0.22338186  0.22647319     0.07900
C951        C  0.78762863  0.22929512  0.20647372     0.01700
H952        H  0.74112160  0.25332062  0.24995942     0.09300
H953        H  0.79974688  0.21436421  0.19447680     0.08400
N954        N  0.76620771  0.35915061  0.21003166    -0.35400
N955        N  0.77332244  0.36822457  0.18484817    -0.27600
C956        C  0.77386140  0.39631169  0.18466674    -0.02800
C957        C  0.76701565  0.40646591  0.21088828     0.05800
C958        C  0.76263803  0.38208320  0.22663885     0.03900
H959        H  0.78230149  0.40850020  0.16757351     0.09000
H960        H  0.75962910  0.38115946  0.24905442     0.07800
N961        N  0.86668185  0.51776459  0.18417278    -0.26600
N962        N  0.86268625  0.54454732  0.17917922    -0.34400
C963        C  0.88132599  0.55329981  0.16013178     0.01800
C964        C  0.89793907  0.53082375  0.15249799     0.07800
C965        C  0.88805531  0.50857345  0.16828025    -0.05300
H966        H  0.88133268  0.57398979  0.15103772     0.08400
H967        H  0.89490389  0.48703606  0.16737163     0.09600
Cu968      Cu  0.82939090  0.56628705  0.19530271     0.44200
Cu969      Cu  0.83873533  0.49490800  0.20794186     0.42000
Cu970      Cu  0.77059201  0.52667722  0.22405118     0.43900
N971        N  0.79490896  0.58523843  0.21244672    -0.34000
N972        N  0.77311250  0.57199282  0.22329167    -0.28200
C973        C  0.75542410  0.59187358  0.23338672    -0.04300
C974        C  0.76677916  0.61844079  0.22834912     0.07900
C975        C  0.79181555  0.61307566  0.21517065     0.01700
H976        H  0.73603251  0.58745670  0.24419931     0.09300
H977        H  0.80707609  0.62833995  0.20843760     0.08400
N978        N  0.77838317  0.48196823  0.22305171    -0.35400
N979        N  0.80401893  0.47197640  0.21962090    -0.27600
C980        C  0.80334335  0.44394067  0.21822844    -0.02800
C981        C  0.77610252  0.43476237  0.22073291     0.05800
C982        C  0.76064450  0.45964827  0.22336176     0.03900
H983        H  0.82119518  0.43118574  0.21256116     0.09000
H984        H  0.73807858  0.46138190  0.22334038     0.07800
N985        N  0.83609403  0.05826318  0.39477130    -0.26600
N986        N  0.84413194  0.06629890  0.36964305    -0.34400
C987        C  0.86704290  0.05176907  0.36207051     0.01800
C988        C  0.87393308  0.03389840  0.38376745     0.07800
C989        C  0.85375049  0.03856985  0.40409556    -0.05300
H990        H  0.87839240  0.05480001  0.34270416     0.08400
H991        H  0.85226001  0.02881532  0.42443637     0.09600
Cu992      Cu  0.82360256  0.09773707  0.34866688     0.44200
Cu993      Cu  0.80409194  0.07767761  0.41652178     0.42000
Cu994      Cu  0.77560023  0.14208391  0.39100732     0.43900
N995        N  0.79604787  0.12598508  0.33145759    -0.34000
N996        N  0.77815450  0.14188757  0.34560811    -0.28200
C997        C  0.76266446  0.15600878  0.32648091    -0.04300
C998        C  0.77137441  0.14848961  0.29947635     0.07900
C999        C  0.79255029  0.12950924  0.30373331     0.01700
H1000       H  0.74608186  0.17052876  0.33169209     0.09300
H1001       H  0.80436984  0.11860246  0.28775549     0.08400
N1002       N  0.77688910  0.13165546  0.43515641    -0.35400
N1003       N  0.78479490  0.10625795  0.44263845    -0.27600
C1004       C  0.78600284  0.10446163  0.47060213    -0.02800
C1005       C  0.77895132  0.12988163  0.48251405     0.05800
C1006       C  0.77340952  0.14688853  0.45914760     0.03900
H1007       H  0.79490722  0.08677510  0.48151037     0.09000
H1008       H  0.76967405  0.16919399  0.45958952     0.07800
N1009       N  0.86418547  0.08537232  0.60146064    -0.26600
N1010       N  0.86048657  0.08546323  0.62874849    -0.34400
C1011       C  0.87461077  0.06408764  0.64012126     0.01800
C1012       C  0.88788106  0.04958283  0.61879261     0.07800
C1013       C  0.88088766  0.06383576  0.59450778    -0.05300
H1014       H  0.87371964  0.05853930  0.66203002     0.08400
H1015       H  0.88664045  0.05847744  0.57326706     0.09600
Cu1016     Cu  0.83257594  0.11206293  0.64729542     0.44200
Cu1017     Cu  0.84163127  0.11194107  0.57601753     0.42000
Cu1018     Cu  0.77852702  0.14624503  0.60353266     0.43900
N1019       N  0.80032155  0.13505113  0.66349055    -0.34000
N1020       N  0.77988046  0.14710807  0.64918231    -0.28200
C1021       C  0.76239935  0.15903023  0.66831621    -0.04300
C1022       C  0.77267543  0.15404449  0.69535725     0.07900
C1023       C  0.79668976  0.13891782  0.69111466     0.01700
H1024       H  0.74381306  0.17080271  0.66309094     0.09300
H1025       H  0.81068327  0.13114777  0.70705718     0.08400
N1026       N  0.78771315  0.14134425  0.55905500    -0.35400
N1027       N  0.81199209  0.13069621  0.55088472    -0.27600
C1028       C  0.81270211  0.12830834  0.52294626    -0.02800
C1029       C  0.78779266  0.13752754  0.51172367     0.05800
C1030       C  0.77215381  0.14555977  0.53545030     0.03900
H1031       H  0.82937977  0.11790672  0.51163445     0.09000
H1032       H  0.75044583  0.15195922  0.53557622     0.07800
N1033       N  0.13067236  0.73502559  0.41267480    -0.26600
N1034       N  0.13366238  0.74080849  0.38589319    -0.34400
C1035       C  0.11736698  0.76259955  0.37934385     0.01800
C1036       C  0.10380187  0.77158043  0.40337115     0.07800
C1037       C  0.11251098  0.75333340  0.42411815    -0.05300
H1038       H  0.11685652  0.77217481  0.35888292     0.08400
H1039       H  0.10799985  0.75477817  0.44626362     0.09600
Cu1040     Cu  0.16443907  0.72337348  0.36138439     0.44200
Cu1041     Cu  0.15690264  0.70705260  0.43243112     0.42000
Cu1042     Cu  0.22385872  0.69241465  0.39778805     0.43900
N1043       N  0.19809303  0.70643766  0.34056963    -0.34000
N1044       N  0.22002707  0.69481557  0.35282879    -0.28200
C1045       C  0.23700635  0.68499633  0.33223399    -0.04300
C1046       C  0.22508507  0.69097816  0.30618888     0.07900
C1047       C  0.20048639  0.70455009  0.31256182     0.01700
H1048       H  0.25633647  0.67380369  0.33581568     0.09300
H1049       H  0.18505909  0.71209833  0.29789201     0.08400
N1050       N  0.21722057  0.69075583  0.44245938    -0.35400
N1051       N  0.19178693  0.69273899  0.45330717    -0.27600
C1052       C  0.19322055  0.69267506  0.48133043    -0.02800
C1053       C  0.22081466  0.69103454  0.48957079     0.05800
C1054       C  0.23559869  0.69021215  0.46416873     0.03900
H1055       H  0.17567670  0.69767793  0.49480360     0.09000
H1056       H  0.25806040  0.69168597  0.46175524     0.07800
N1057       N  0.17135899  0.78010227  0.59964914    -0.26600
N1058       N  0.16620162  0.77372867  0.62595447    -0.34400
C1059       C  0.14476263  0.78902857  0.63548948     0.01800
C1060       C  0.13567033  0.80584448  0.61399353     0.07800
C1061       C  0.15286511  0.79961713  0.59140722    -0.05300
H1062       H  0.13594157  0.78733253  0.65628049     0.08400
H1063       H  0.15189847  0.80840652  0.57060236     0.09600
Cu1064     Cu  0.18725349  0.74339907  0.64676932     0.44200
Cu1065     Cu  0.20196041  0.75915562  0.57720085     0.42000
Cu1066     Cu  0.23120691  0.69495647  0.60883440     0.43900
N1067       N  0.21060639  0.71405455  0.66649962    -0.34000
N1068       N  0.22739934  0.69597490  0.65385858    -0.28200
C1069       C  0.24026169  0.68104140  0.67422509    -0.04300
C1070       C  0.23071203  0.69040816  0.70035323     0.07900
C1071       C  0.21207603  0.71131157  0.69439656     0.01700
H1072       H  0.25565094  0.66485706  0.67047149     0.09300
H1073       H  0.20071287  0.72408771  0.70928412     0.08400
N1074       N  0.23060741  0.70382840  0.56454899    -0.35400
N1075       N  0.22289381  0.72855663  0.55480257    -0.27600
C1076       C  0.22275834  0.72806739  0.52673362    -0.02800
C1077       C  0.23020027  0.70178136  0.51732386     0.05800
C1078       C  0.23472515  0.68675612  0.54208642     0.03900
H1079       H  0.21378024  0.74450614  0.51407193     0.09000
H1080       H  0.23814123  0.66444590  0.54360012     0.07800
N1081       N  0.86848897  0.32287822  0.82640725    -0.26600
N1082       N  0.86207787  0.29694654  0.83318063    -0.34400
C1083       C  0.87937998  0.28813527  0.85338968     0.01800
C1084       C  0.89732932  0.30981291  0.85992427     0.07800
C1085       C  0.88980781  0.33158371  0.84248210    -0.05300
H1086       H  0.87791295  0.26805114  0.86366579     0.08400
H1087       H  0.89844858  0.35248633  0.84219335     0.09600
Cu1088     Cu  0.82826800  0.27654664  0.81642107     0.44200
Cu1089     Cu  0.84486377  0.34582287  0.79868890     0.42000
Cu1090     Cu  0.77792064  0.31823000  0.77614509     0.43900
N1091       N  0.79639140  0.25896370  0.79372027    -0.34000
N1092       N  0.77817076  0.27294711  0.77824810    -0.28200
C1093       C  0.76234271  0.25370727  0.76458330    -0.04300
C1094       C  0.77118564  0.22681322  0.77205582     0.07900
C1095       C  0.79272806  0.23124176  0.79052776     0.01700
H1096       H  0.74604007  0.25876704  0.74978008     0.09300
H1097       H  0.80555640  0.21541035  0.80029650     0.08400
N1098       N  0.78783313  0.36242263  0.77724577    -0.35400
N1099       N  0.81355950  0.37083712  0.78299051    -0.27600
C1100       C  0.81446480  0.39884244  0.78445013    -0.02800
C1101       C  0.78815794  0.40966158  0.77965444     0.05800
C1102       C  0.77155762  0.38576706  0.77544385     0.03900
H1103       H  0.83237034  0.41043597  0.79200327     0.09000
H1104       H  0.74900640  0.38539084  0.77367126     0.07800
N1105       N  0.82698046  0.52414733  0.87364864    -0.26600
N1106       N  0.83294623  0.55051231  0.86831587    -0.34400
C1107       C  0.85293888  0.55920262  0.88608711     0.01800
C1108       C  0.86002397  0.53716325  0.90361411     0.07800
C1109       C  0.84287575  0.51531247  0.89504308    -0.05300
H1110       H  0.86253238  0.57965653  0.88526115     0.08400
H1111       H  0.84236325  0.49423282  0.90311351     0.09600
Cu1112     Cu  0.81429616  0.57199042  0.83570675     0.44200
Cu1113     Cu  0.80096339  0.50057969  0.84823819     0.42000
Cu1114     Cu  0.77738243  0.52963940  0.78233506     0.43900
N1115       N  0.79127072  0.58919076  0.80331204    -0.34000
N1116       N  0.77792309  0.57472670  0.78374071    -0.28200
C1117       C  0.76494542  0.59335080  0.76677449    -0.04300
C1118       C  0.77031512  0.62046591  0.77631828     0.07900
C1119       C  0.78707643  0.61679480  0.79944961     0.01700
H1120       H  0.75225317  0.58767813  0.74893639     0.09300
H1121       H  0.79556372  0.63306881  0.81269030     0.08400
N1122       N  0.77859153  0.48540487  0.79084123    -0.35400
N1123       N  0.78527391  0.47616169  0.81603014    -0.27600
C1124       C  0.78618834  0.44809408  0.81588588    -0.02800
C1125       C  0.77985849  0.43821507  0.78945313     0.05800
C1126       C  0.77551541  0.46267604  0.77388272     0.03900
H1127       H  0.79396015  0.43573368  0.83313351     0.09000
H1128       H  0.77256360  0.46382652  0.75148419     0.07800
N1129       N  0.81949627  0.78571483  0.40391416    -0.26600
N1130       N  0.82506038  0.78188137  0.37718014    -0.34400
C1131       C  0.84769152  0.79689631  0.37018570     0.01800
C1132       C  0.85729300  0.81052707  0.39393958     0.07800
C1133       C  0.83870293  0.80299929  0.41491527    -0.05300
H1134       H  0.85697242  0.79685025  0.34953978     0.08400
H1135       H  0.84015251  0.80791816  0.43695883     0.09600
Cu1136     Cu  0.80466840  0.75235086  0.35361736     0.44200
Cu1137     Cu  0.78984260  0.76241184  0.42466221     0.42000
Cu1138     Cu  0.76871556  0.69679501  0.39316230     0.43900
N1139       N  0.78345007  0.72023457  0.33456819    -0.34000
N1140       N  0.77013287  0.69976556  0.34769497    -0.28200
C1141       C  0.75832489  0.68340021  0.32764315    -0.04300
C1142       C  0.76469047  0.69426902  0.30115020     0.07900
C1143       C  0.78064021  0.71752670  0.30667357     0.01700
H1144       H  0.74570171  0.66511989  0.33188216     0.09300
H1145       H  0.78942456  0.73177306  0.29147320     0.08400
N1146       N  0.76937218  0.70438746  0.43810694    -0.35400
N1147       N  0.77403972  0.72988052  0.44784824    -0.27600
C1148       C  0.77511893  0.72961175  0.47590086    -0.02800
C1149       C  0.77125450  0.70271654  0.48548370     0.05800
C1150       C  0.76805292  0.68704173  0.46069943     0.03900
H1151       H  0.78203509  0.74721820  0.48836134     0.09000
H1152       H  0.76720383  0.66448195  0.45924294     0.07800
N1153       N  0.87019979  0.73805111  0.59714671    -0.26600
N1154       N  0.86680421  0.74071898  0.62437984    -0.34400
C1155       C  0.88461853  0.75996998  0.63426132     0.01800
C1156       C  0.90000373  0.77031159  0.61207989     0.07800
C1157       C  0.89034527  0.75583177  0.58877750    -0.05300
H1158       H  0.88457373  0.76760505  0.65559391     0.08400
H1159       H  0.89630625  0.75908227  0.56718949     0.09600
Cu1160     Cu  0.83440870  0.72229642  0.64525721     0.44200
Cu1161     Cu  0.84277743  0.71420554  0.57342111     0.42000
Cu1162     Cu  0.77572176  0.69318299  0.60584688     0.43900
N1163       N  0.80008387  0.70539751  0.66426519    -0.34000
N1164       N  0.77806647  0.69475854  0.65125059    -0.28200
C1165       C  0.76028615  0.68542625  0.67141537    -0.04300
C1166       C  0.77199938  0.69058941  0.69783398     0.07900
C1167       C  0.79716318  0.70317361  0.69214258     0.01700
H1168       H  0.74062523  0.67502646  0.66730955     0.09300
H1169       H  0.81260733  0.70990716  0.70722170     0.08400
N1170       N  0.78380430  0.69344616  0.56106439    -0.35400
N1171       N  0.80905250  0.69878949  0.55089572    -0.27600
C1172       C  0.80827774  0.69894364  0.52279176    -0.02800
C1173       C  0.78136545  0.69367957  0.51371068     0.05800
C1174       C  0.76622025  0.69073721  0.53879156     0.03900
H1175       H  0.82552288  0.70580100  0.50980510     0.09000
H1176       H  0.74372479  0.68900552  0.54061456     0.07800
N1177       N  0.40521638  0.74378089  0.87048523    -0.26600
N1178       N  0.37867704  0.74981366  0.86618259    -0.34400
C1179       C  0.37094534  0.77071338  0.88325807     0.01800
C1180       C  0.39381674  0.77846989  0.89920795     0.07800
C1181       C  0.41525971  0.76083666  0.89051220    -0.05300
H1182       H  0.35065857  0.78071337  0.88266435     0.08400
H1183       H  0.43681828  0.76106206  0.89730559     0.09600
Cu1184     Cu  0.35569642  0.73186817  0.83473920     0.44200
Cu1185     Cu  0.42669202  0.71649527  0.84456313     0.42000
Cu1186     Cu  0.39374791  0.69843022  0.77757506     0.43900
N1187       N  0.33580598  0.71213143  0.80226240    -0.34000
N1188       N  0.34861291  0.69987637  0.78089149    -0.28200
C1189       C  0.32845224  0.68853691  0.76443301    -0.04300
C1190       C  0.30216824  0.69396663  0.77628859     0.07900
C1191       C  0.30791876  0.70891635  0.80019501     0.01700
H1192       H  0.33251085  0.67652817  0.74564621     0.09300
H1193       H  0.29292086  0.71654486  0.81538145     0.08400
N1194       N  0.43838790  0.69805690  0.78493920    -0.35400
N1195       N  0.44876540  0.70177100  0.81034639    -0.27600
C1196       C  0.47683644  0.70204850  0.80924956    -0.02800
C1197       C  0.48556840  0.69862967  0.78192803     0.05800
C1198       C  0.46043796  0.69658419  0.76690777     0.03900
H1199       H  0.48997184  0.70803326  0.82667815     0.09000
H1200       H  0.45841517  0.69635754  0.74436789     0.07800
N1201       N  0.59563473  0.79551520  0.81703932    -0.26600
N1202       N  0.62205180  0.79097591  0.82350267    -0.34400
C1203       C  0.62965320  0.80866777  0.84395872     0.01800
C1204       C  0.60681771  0.82517050  0.85093179     0.07800
C1205       C  0.58558344  0.81620668  0.83332000    -0.05300
H1206       H  0.64980494  0.80823404  0.85420816     0.08400
H1207       H  0.56411577  0.82333591  0.83302514     0.09600
Cu1208     Cu  0.64496649  0.75850867  0.80656531     0.44200
Cu1209     Cu  0.57377668  0.76954767  0.79023233     0.42000
Cu1210     Cu  0.60519809  0.70240640  0.77246302     0.43900
N1211       N  0.66380525  0.72457678  0.78754729    -0.34000
N1212       N  0.65024159  0.70391503  0.77497431    -0.28200
C1213       C  0.66971549  0.68616890  0.76432025    -0.04300
C1214       C  0.69643858  0.69619623  0.77071535     0.07900
C1215       C  0.69163043  0.72061786  0.78530752     0.01700
H1216       H  0.66491301  0.66758534  0.75232080     0.09300
H1217       H  0.70727457  0.73482834  0.79335486     0.08400
N1218       N  0.56079972  0.71048373  0.77159478    -0.35400
N1219       N  0.55081106  0.73601426  0.77551490    -0.27600
C1220       C  0.52271681  0.73538692  0.77579007    -0.02800
C1221       C  0.51360215  0.70823867  0.77206820     0.05800
C1222       C  0.53853015  0.69284937  0.76991097     0.03900
H1223       H  0.50981518  0.75295337  0.78199777     0.09000
H1224       H  0.54025770  0.67029272  0.76959857     0.07800
C1225       C  0.22609203  0.65824953  0.74201349     0.03000
C1226       C  0.23945124  0.68146881  0.72887146     0.03000
C1227       C  0.26143666  0.69606703  0.74283153     0.03000
C1228       C  0.27404530  0.68393517  0.76682203     0.03000
C1229       C  0.26136844  0.66030943  0.77985929     0.03000
C1230       C  0.23848955  0.64652471  0.76637805     0.03000
C1231       C  0.73854001  0.69677124  0.73858076     0.03000
C1232       C  0.76152502  0.68228509  0.72620773     0.03000
C1233       C  0.77402196  0.65929384  0.74058007     0.03000
C1234       C  0.76032991  0.64770040  0.76443871     0.03000
C1235       C  0.73606047  0.66108293  0.77576183     0.03000
C1236       C  0.72428533  0.68469064  0.76181598     0.03000
C1237       C  0.73204554  0.65850661  0.22440505     0.03000
C1238       C  0.75607858  0.64657338  0.23743312     0.03000
C1239       C  0.76937332  0.66109291  0.25991512     0.03000
C1240       C  0.75549923  0.68411747  0.27286906     0.03000
C1241       C  0.73153572  0.69609205  0.25984986     0.03000
C1242       C  0.71866920  0.68208770  0.23682478     0.03000
C1243       C  0.73863887  0.15017039  0.73580207     0.03000
C1244       C  0.76183182  0.16387735  0.72317931     0.03000
C1245       C  0.77473675  0.18690805  0.73726430     0.03000
C1246       C  0.76149360  0.19908006  0.76106276     0.03000
C1247       C  0.73806660  0.18552882  0.77340458     0.03000
C1248       C  0.72531357  0.16251983  0.75946471     0.03000
N1249       N  0.17785138  0.32264557  0.87388845    -0.26600
N1250       N  0.17154455  0.29653330  0.86779215    -0.34400
C1251       C  0.15229544  0.28716373  0.88589071     0.01800
C1252       C  0.14591624  0.30852039  0.90445075     0.07800
C1253       C  0.16277754  0.33071985  0.89625398    -0.05300
H1254       H  0.14213421  0.26704048  0.88411617     0.08400
H1255       H  0.16303746  0.35168414  0.90474520     0.09600
Cu1256     Cu  0.18689735  0.27661168  0.83309425     0.44200
Cu1257     Cu  0.20142088  0.34695762  0.84703989     0.42000
Cu1258     Cu  0.22100940  0.31815033  0.77870981     0.43900
N1259       N  0.20798582  0.25908403  0.80013620    -0.34000
N1260       N  0.22110099  0.27316976  0.78021346    -0.28200
C1261       C  0.23400217  0.25417884  0.76346971    -0.04300
C1262       C  0.22862758  0.22732032  0.77364613     0.07900
C1263       C  0.21199770  0.23145937  0.79675576     0.01700
H1264       H  0.24665314  0.25941288  0.74544056     0.09300
H1265       H  0.20370396  0.21555069  0.81049929     0.08400
N1266       N  0.21836136  0.36218810  0.78764416    -0.35400
N1267       N  0.21297748  0.37133104  0.81327596    -0.27600
C1268       C  0.21068650  0.39928555  0.81319934    -0.02800
C1269       C  0.21481485  0.40912754  0.78640632     0.05800
C1270       C  0.21935320  0.38487491  0.77051596     0.03900
H1271       H  0.20388450  0.41149111  0.83106637     0.09000
H1272       H  0.22120004  0.38373140  0.74797856     0.07800
N1273       N  0.13757431  0.52616849  0.83741979    -0.26600
N1274       N  0.14843484  0.54942573  0.84757789    -0.34400
C1275       C  0.13299473  0.55819617  0.86941454     0.01800
C1276       C  0.11163647  0.53917013  0.87337949     0.07800
C1277       C  0.11519488  0.51909776  0.85282461    -0.05300
H1278       H  0.13755907  0.57647285  0.88199437     0.08400
H1279       H  0.10281561  0.50042757  0.84965318     0.09600
Cu1280     Cu  0.18365130  0.56729981  0.83087722     0.44200
Cu1281     Cu  0.15559555  0.50379239  0.80511867     0.42000
Cu1282     Cu  0.21975155  0.52802207  0.77533890     0.43900
N1283       N  0.20985349  0.58557799  0.80231888    -0.34000
N1284       N  0.22189545  0.57254363  0.78095540    -0.28200
C1285       C  0.23385598  0.59232958  0.76459429    -0.04300
C1286       C  0.22903622  0.61860633  0.77649472     0.07900
C1287       C  0.21394963  0.61331394  0.80039086     0.01700
H1288       H  0.24513707  0.58804322  0.74541087     0.09300
H1289       H  0.20568793  0.62861751  0.81492849     0.08400
N1290       N  0.20800654  0.48472481  0.77571351    -0.35400
N1291       N  0.18284472  0.47736405  0.78452892    -0.27600
C1292       C  0.18097616  0.44940413  0.78567206    -0.02800
C1293       C  0.20610319  0.43766997  0.77743678     0.05800
C1294       C  0.22297714  0.46088258  0.77144737     0.03900
H1295       H  0.16379867  0.43842990  0.79553234     0.09000
H1296       H  0.24520692  0.46044502  0.76717371     0.07800
C1297       C  0.23704486  0.16379158  0.72561614     0.03000
C1298       C  0.22458632  0.18714912  0.73956222     0.03000
C1299       C  0.23862718  0.19983357  0.76256853     0.03000
C1300       C  0.26305936  0.18718566  0.77396214     0.03000
C1301       C  0.27580250  0.16431210  0.75947950     0.03000
C1302       C  0.26151708  0.15103347  0.73685918     0.03000
C1303       C  0.22340178  0.65892115  0.26398748     0.03000
C1304       C  0.23523183  0.68265950  0.27764741     0.03000
C1305       C  0.25780824  0.69734647  0.26485581     0.03000
C1306       C  0.27156474  0.68566745  0.24110106     0.03000
C1307       C  0.26075344  0.66096214  0.22830125     0.03000
C1308       C  0.23778809  0.64645659  0.24087024     0.03000
C1309       C  0.73534586  0.18195703  0.22315668     0.03000
C1310       C  0.72344798  0.15780057  0.23591805     0.03000
C1311       C  0.73700974  0.14501372  0.25921114     0.03000
C1312       C  0.76046251  0.15836845  0.27174288     0.03000
C1313       C  0.77330724  0.18140457  0.25795345     0.03000
C1314       C  0.75910460  0.19487350  0.23557680     0.03000
N1315       N  0.16805353  0.05531020  0.40120351    -0.26600
N1316       N  0.16239231  0.05960551  0.37457580    -0.34400
C1317       C  0.14129196  0.04261642  0.36690271     0.01800
C1318       C  0.13313743  0.02723179  0.39010453     0.07800
C1319       C  0.15058374  0.03588938  0.41144566    -0.05300
H1320       H  0.13194128  0.04222652  0.34631157     0.08400
H1321       H  0.15035955  0.02893430  0.43296651     0.09600
Cu1322     Cu  0.18330233  0.09013868  0.35203200     0.44200
Cu1323     Cu  0.19686516  0.07872308  0.42281121     0.42000
Cu1324     Cu  0.22222714  0.14317512  0.39437710     0.43900
N1325       N  0.20878697  0.12063511  0.33463359    -0.34000
N1326       N  0.22294435  0.13994953  0.34872843    -0.28200
C1327       C  0.23705258  0.15553513  0.32953388    -0.04300
C1328       C  0.23162380  0.14530966  0.30252943     0.07900
C1329       C  0.21350084  0.12334620  0.30692541     0.01700
H1330       H  0.25020898  0.17319631  0.33468771     0.09300
H1331       H  0.20409108  0.11031584  0.29099428     0.08400
N1332       N  0.21933428  0.13524106  0.43926680    -0.35400
N1333       N  0.21269343  0.10981708  0.44780976    -0.27600
C1334       C  0.21056042  0.10914057  0.47575774    -0.02800
C1335       C  0.21577797  0.13533116  0.48665569     0.05800
C1336       C  0.22106144  0.15167078  0.46267510     0.03900
H1337       H  0.20254608  0.09137812  0.48724294     0.09000
H1338       H  0.22376060  0.17412261  0.46226518     0.07800
N1339       N  0.12822576  0.09218170  0.60649685    -0.26600
N1340       N  0.13019355  0.09338403  0.63393669    -0.34400
C1341       C  0.11334577  0.07401239  0.64538435     0.01800
C1342       C  0.10012168  0.05963516  0.62391796     0.07800
C1343       C  0.11022073  0.07182335  0.59954794    -0.05300
H1344       H  0.11163689  0.07026874  0.66761755     0.08400
H1345       H  0.10610799  0.06540482  0.57824591     0.09600
Cu1346     Cu  0.15958149  0.11826967  0.65267759     0.44200
Cu1347     Cu  0.15310590  0.11630811  0.58053471     0.42000
Cu1348     Cu  0.21642253  0.14797960  0.60733068     0.43900
N1349       N  0.19477448  0.13759962  0.66766475    -0.34000
N1350       N  0.21584630  0.14783662  0.65274959    -0.28200
C1351       C  0.23489686  0.15798051  0.67122662    -0.04300
C1352       C  0.22509798  0.15372405  0.69852141     0.07900
C1353       C  0.19965617  0.14089803  0.69514082     0.01700
H1354       H  0.25412167  0.16836868  0.66535660     0.09300
H1355       H  0.18539270  0.13460416  0.71155595     0.08400
N1356       N  0.20688690  0.14519031  0.56304989    -0.35400
N1357       N  0.18237742  0.13531307  0.55485639    -0.27600
C1358       C  0.18142367  0.13411453  0.52681604    -0.02800
C1359       C  0.20647110  0.14336515  0.51564269     0.05800
C1360       C  0.22238334  0.14999287  0.53950670     0.03900
H1361       H  0.16465778  0.12418988  0.51530524     0.09000
H1362       H  0.24429597  0.15562514  0.53968634     0.07800
C1363       C  0.26484602  0.14572194  0.26052581     0.03000
C1364       C  0.24090903  0.15678986  0.27460344     0.03000
C1365       C  0.22602350  0.17938634  0.26230795     0.03000
C1366       C  0.23778206  0.19424917  0.23926182     0.03000
C1367       C  0.26139230  0.18298793  0.22486934     0.03000
C1368       C  0.27602089  0.15971484  0.23653013     0.03000
C1369       C  0.91025199  0.86364521  0.41997148     0.24300
C1370       C  0.93273519  0.85901281  0.40154243    -0.23800
C1371       C  0.93079914  0.83754951  0.38153753     0.19200
C1372       C  0.90656378  0.82148971  0.37941344     0.24200
C1373       C  0.88346070  0.82685305  0.39698764    -0.23800
C1374       C  0.88573704  0.84787893  0.41756892     0.19100
F1375       F  0.86387223  0.85408360  0.43465321    -0.13700
F1376       F  0.91141535  0.88436172  0.43941473    -0.16100
F1377       F  0.90613655  0.80033402  0.36045181    -0.16100
F1378       F  0.95256739  0.83188255  0.36410523    -0.13700
C1379       C  0.04850516  0.82379919  0.42691967     0.24300
C1380       C  0.05407591  0.84626460  0.40883064    -0.23800
C1381       C  0.07730782  0.84495800  0.39095103     0.19200
C1382       C  0.09399872  0.82111984  0.39004720     0.24200
C1383       C  0.08746144  0.79771328  0.40663427    -0.23800
C1384       C  0.06502157  0.79955728  0.42572131     0.19100
F1385       F  0.05820739  0.77748645  0.44218216    -0.13700
F1386       F  0.02617262  0.82465706  0.44450824    -0.16100
F1387       F  0.11679024  0.82122627  0.37306980    -0.16100
F1388       F  0.08385950  0.86692419  0.37422107    -0.13700
C1389       C  0.92981734  0.98089797  0.36447974     0.24300
C1390       C  0.94280075  0.97619792  0.39054923    -0.23800
C1391       C  0.93386654  0.99196827  0.41386538     0.19200
C1392       C  0.91190987  0.01105865  0.41143978     0.24200
C1393       C  0.89831878  0.01493677  0.38569363    -0.23800
C1394       C  0.90785771  0.00010583  0.36210569     0.19100
F1395       F  0.89511942  0.00319632  0.33694467    -0.13700
F1396       F  0.93762332  0.96628722  0.34134726    -0.16100
F1397       F  0.90424512  0.02607215  0.43434927    -0.16100
F1398       F  0.94618626  0.98890268  0.43924007    -0.13700
C1399       C  0.08409105  0.96752994  0.37300861     0.24300
C1400       C  0.06614020  0.96748001  0.39647002    -0.23800
C1401       C  0.07055166  0.98727929  0.41785028     0.19200
C1402       C  0.09230261  0.00672184  0.41574115     0.24200
C1403       C  0.11002043  0.00683634  0.39219803    -0.23800
C1404       C  0.10570132  0.98709913  0.37086615     0.19100
F1405       F  0.12294764  0.98619101  0.34827383    -0.13700
F1406       F  0.08113248  0.94828509  0.35228780    -0.16100
F1407       F  0.09538537  0.02609850  0.43631222    -0.16100
F1408       F  0.05331341  0.98845566  0.44044139    -0.13700
C1409       C  0.93253675  0.84014718  0.59385488     0.24300
C1410       C  0.94919842  0.84541622  0.61754647    -0.23800
C1411       C  0.95062212  0.82505726  0.63871605     0.19200
C1412       C  0.93533756  0.80023628  0.63644016     0.24200
C1413       C  0.91826479  0.79526058  0.61301081    -0.23800
C1414       C  0.91720576  0.81537002  0.59163563     0.19100
F1415       F  0.90031974  0.81176085  0.56912938    -0.13700
F1416       F  0.93037161  0.85935199  0.57310319    -0.16100
F1417       F  0.93756936  0.78085310  0.65702733    -0.16100
F1418       F  0.96733928  0.82880006  0.66135008    -0.13700
C1419       C  0.93595490  0.99325109  0.64703920     0.24300
C1420       C  0.93614129  0.97383309  0.62486114    -0.23800
C1421       C  0.91909482  0.97876651  0.60144708     0.19200
C1422       C  0.90301913  0.00307353  0.59972378     0.24200
C1423       C  0.90380672  0.02314202  0.62128459    -0.23800
C1424       C  0.92001927  0.01770769  0.64522415     0.19100
F1425       F  0.92173624  0.03673485  0.66627690    -0.13700
F1426       F  0.95260246  0.98955423  0.66971815    -0.16100
F1427       F  0.88651341  0.00674295  0.57696588    -0.16100
F1428       F  0.91823555  0.96018083  0.57993942    -0.13700
C1429       C  0.06981441  0.84488304  0.59493239     0.24300
C1430       C  0.06591135  0.86188218  0.61874267    -0.23800
C1431       C  0.08508607  0.86015096  0.64092295     0.19200
C1432       C  0.10790616  0.84205481  0.63917583     0.24200
C1433       C  0.11197491  0.82539642  0.61524652    -0.23800
C1434       C  0.09271369  0.82682375  0.59319366     0.19100
F1435       F  0.09542057  0.80994512  0.57045927    -0.13700
F1436       F  0.05101428  0.84508217  0.57367463    -0.16100
F1437       F  0.12644996  0.84134871  0.66064230    -0.16100
F1438       F  0.08219315  0.87646218  0.66404530    -0.13700
C1439       C  0.04635691  0.00501647  0.60424220     0.24300
C1440       C  0.04876844  0.98557279  0.62611794    -0.23800
C1441       C  0.06678364  0.99160469  0.64857491     0.19200
C1442       C  0.08311152  0.01595190  0.64838080     0.24200
C1443       C  0.08140740  0.03491463  0.62585761    -0.23800
C1444       C  0.06224070  0.02943467  0.60424457     0.19100
F1445       F  0.05833697  0.04797884  0.58317216    -0.13700
F1446       F  0.02808038  0.00075401  0.58294555    -0.16100
F1447       F  0.10127470  0.02022928  0.66973809    -0.16100
F1448       F  0.06933992  0.97352633  0.67028307    -0.13700
C1449       C  0.37159551  0.83599229  0.94907216     0.24300
C1450       C  0.39592230  0.85249642  0.95073948    -0.23800
C1451       C  0.42024178  0.84338322  0.93667654     0.19200
C1452       C  0.41990801  0.81891065  0.92056281     0.24200
C1453       C  0.39530724  0.80289968  0.91829867    -0.23800
C1454       C  0.37135555  0.81145958  0.93318830     0.19100
F1455       F  0.34760114  0.79592270  0.93266222    -0.13700
F1456       F  0.34792318  0.84338553  0.96300143    -0.16100
F1457       F  0.44335080  0.81176062  0.90615672    -0.16100
F1458       F  0.44418440  0.85861823  0.93762422    -0.13700
C1459       C  0.41480564  0.86630222  0.08020095     0.24300
C1460       C  0.39091234  0.87926728  0.06891804    -0.23800
C1461       C  0.36494197  0.87509788  0.08239132     0.19200
C1462       C  0.36288203  0.85810720  0.10609946     0.24200
C1463       C  0.38664066  0.84460118  0.11697511    -0.23800
C1464       C  0.41268455  0.84910797  0.10378262     0.19100
F1465       F  0.43613743  0.83599849  0.11282966    -0.13700
F1466       F  0.44029247  0.86955535  0.06804572    -0.16100
F1467       F  0.33752578  0.85530616  0.11861116    -0.16100
F1468       F  0.34130212  0.88751537  0.07277294    -0.13700
C1469       C  0.42087729  0.98994836  0.91750390     0.24300
C1470       C  0.39689474  0.97443958  0.92482994    -0.23800
C1471       C  0.37237247  0.97790586  0.90884586     0.19200
C1472       C  0.37170910  0.99667216  0.88652987     0.24200
C1473       C  0.39552345  0.01237929  0.87948231    -0.23800
C1474       C  0.42017213  0.00872139  0.89507711     0.19100
F1475       F  0.44325228  0.02429506  0.88953603    -0.13700
F1476       F  0.44476887  0.98785134  0.93265769    -0.16100
F1477       F  0.34773396  0.99913829  0.87155484    -0.16100
F1478       F  0.34883495  0.96313180  0.91470303    -0.13700
C1479       C  0.41903803  0.00990158  0.05413396     0.24300
C1480       C  0.39459498  0.99977452  0.04112949    -0.23800
C1481       C  0.36979644  0.01554280  0.04350754     0.19200
C1482       C  0.36922185  0.04021701  0.05918048     0.24200
C1483       C  0.39330737  0.04972103  0.07313023    -0.23800
C1484       C  0.41837425  0.03450340  0.07003190     0.19100
F1485       F  0.44207831  0.04255325  0.08336949    -0.13700
F1486       F  0.44355756  0.99565933  0.05222219    -0.16100
F1487       F  0.34497443  0.05495533  0.06042117    -0.16100
F1488       F  0.34592293  0.00726330  0.03057586    -0.13700
C1489       C  0.93491707  0.28749710  0.88813008     0.24300
C1490       C  0.91735951  0.31048966  0.88323093    -0.23800
C1491       C  0.91797929  0.33341507  0.90163757     0.19200
C1492       C  0.93547387  0.33308747  0.92498525     0.24200
C1493       C  0.95274118  0.30983277  0.93025628    -0.23800
C1494       C  0.95255342  0.28718861  0.91137195     0.19100
F1495       F  0.96955251  0.26478297  0.91526235    -0.13700
F1496       F  0.93515951  0.26539715  0.87023615    -0.16100
F1497       F  0.93449079  0.35499274  0.94309645    -0.16100
F1498       F  0.90052494  0.35549652  0.89791935    -0.13700
C1499       C  0.11288947  0.28369256  0.93671437     0.24300
C1500       C  0.12220079  0.30877967  0.92446945    -0.23800
C1501       C  0.10719010  0.33356193  0.92978545     0.19200
C1502       C  0.08293565  0.33308541  0.94604776     0.24200
C1503       C  0.07288560  0.30777568  0.95722940    -0.23800
C1504       C  0.08842507  0.28314062  0.95273650     0.19100
F1505       F  0.08004921  0.25838391  0.96379125    -0.13700
F1506       F  0.12746497  0.25955138  0.93327644    -0.16100
F1507       F  0.06880811  0.35743948  0.94990193    -0.16100
F1508       F  0.11492509  0.35819678  0.91810516    -0.13700
C1509       C  0.91932422  0.33189658  0.06339055     0.24300
C1510       C  0.92756997  0.30707916  0.04963496    -0.23800
C1511       C  0.91158592  0.28266754  0.05357453     0.19200
C1512       C  0.88810705  0.28305936  0.07100936     0.24200
C1513       C  0.88007393  0.30783244  0.08474944    -0.23800
C1514       C  0.89584903  0.33222772  0.08073663     0.19100
F1515       F  0.88945892  0.35614924  0.09471267    -0.13700
F1516       F  0.93444033  0.35579724  0.06090830    -0.16100
F1517       F  0.87305026  0.25920825  0.07420577    -0.16100
F1518       F  0.91852715  0.25835612  0.04055992    -0.13700
C1519       C  0.06935874  0.28642020  0.07511827     0.19500
C1520       C  0.04563520  0.30364189  0.07407434    -0.23800
C1521       C  0.03878856  0.32053263  0.09714370     0.19200
C1522       C  0.05564141  0.32038416  0.12097653     0.24200
C1523       C  0.07970669  0.30350340  0.12194117    -0.23800
C1524       C  0.08640867  0.28648093  0.09877178     0.19100
F1525       F  0.11014118  0.27088103  0.09838074    -0.13700
F1526       F  0.07673646  0.27050545  0.05270001    -0.16100
F1527       F  0.04814320  0.33634710  0.14328919    -0.16100
F1528       F  0.01545686  0.33673859  0.09677768    -0.13700
C1529       C  0.58023986  0.84787596  0.89047745     0.24300
C1530       C  0.60500743  0.84510737  0.87468915    -0.23800
C1531       C  0.62874865  0.86042803  0.88280035     0.19200
C1532       C  0.62821993  0.87708739  0.90682584     0.24200
C1533       C  0.60385420  0.87893645  0.92338186    -0.23800
C1534       C  0.57964106  0.86466839  0.91450577     0.19100
F1535       F  0.55554652  0.86608723  0.92954642    -0.13700
F1536       F  0.55689951  0.83327632  0.88360671    -0.16100
F1537       F  0.65170181  0.89147508  0.91373794    -0.16100
F1538       F  0.65259014  0.85949781  0.86733780    -0.13700
C1539       C  0.62558176  0.01402895  0.94656726     0.24300
C1540       C  0.60289248  0.99533136  0.94733377    -0.23800
C1541       C  0.58024473  0.99950945  0.92899301     0.19200
C1542       C  0.58066497  0.02153415  0.90981619     0.24200
C1543       C  0.60371393  0.03972185  0.90863944    -0.23800
C1544       C  0.62599917  0.03595991  0.92735880     0.19100
F1545       F  0.64808335  0.05379788  0.92732992    -0.13700
F1546       F  0.64734043  0.01123567  0.96455599    -0.16100
F1547       F  0.55918933  0.02416886  0.89146214    -0.16100
F1548       F  0.55827058  0.98152217  0.92864985    -0.13700
C1549       C  0.63263372  0.82062377  0.07386919     0.24300
C1550       C  0.60793969  0.81259983  0.08770044    -0.23800
C1551       C  0.58275928  0.82624212  0.08117706     0.19200
C1552       C  0.58219894  0.84743061  0.06120723     0.24200
C1553       C  0.60690070  0.85563582  0.04729125    -0.23800
C1554       C  0.63214676  0.84188147  0.05384337     0.19100
F1555       F  0.65648563  0.84894270  0.04098701    -0.13700
F1556       F  0.65724587  0.80758111  0.07933812    -0.16100
F1557       F  0.55745029  0.86045303  0.05628375    -0.16100
F1558       F  0.55873447  0.81998988  0.09500459    -0.13700
C1559       C  0.58300477  0.99392345  0.10830126     0.24300
C1560       C  0.60840094  0.99779104  0.12273285    -0.23800
C1561       C  0.63295529  0.98594791  0.11138596     0.19200
C1562       C  0.63238479  0.97196505  0.08567708     0.24200
C1563       C  0.60710876  0.96891161  0.07084500    -0.23800
C1564       C  0.58236183  0.97955506  0.08283931     0.19100
F1565       F  0.55738097  0.97674751  0.06967342    -0.13700
F1566       F  0.55871001  0.00498908  0.11795313    -0.16100
F1567       F  0.65671600  0.96129405  0.07551279    -0.16100
F1568       F  0.65768561  0.98762473  0.12519543    -0.13700
C1569       C  0.91495146  0.56070114  0.95628212     0.24300
C1570       C  0.92946620  0.53562310  0.96170941    -0.23800
C1571       C  0.91976310  0.51078097  0.94911408     0.19200
C1572       C  0.89702913  0.51117968  0.93074804     0.24200
C1573       C  0.88303832  0.53638412  0.92463362    -0.23800
C1574       C  0.89199887  0.56103604  0.93810982     0.19100
F1575       F  0.87839755  0.58559913  0.93403663    -0.13700
F1576       F  0.92288890  0.58509695  0.96849031    -0.16100
F1577       F  0.88970458  0.48686657  0.91807109    -0.16100
F1578       F  0.93272573  0.48596783  0.95380972    -0.13700
C1579       C  0.92110772  0.50660676  0.11192804     0.24300
C1580       C  0.91846323  0.53028966  0.12926492    -0.23800
C1581       C  0.93434342  0.55426306  0.12310787     0.19200
C1582       C  0.95181773  0.55488479  0.09966237     0.24200
C1583       C  0.95392855  0.53146010  0.08187576    -0.23800
C1584       C  0.93871642  0.50714887  0.08855902     0.19100
F1585       F  0.93986908  0.48417294  0.07184391    -0.13700
F1586       F  0.90554247  0.48334873  0.11656893    -0.16100
F1587       F  0.96673606  0.57847861  0.09450830    -0.16100
F1588       F  0.93311506  0.57718344  0.13988697    -0.13700
C1589       C  0.07609371  0.56296069  0.90347859     0.24300
C1590       C  0.09110572  0.53875841  0.89627205    -0.23800
C1591       C  0.08660470  0.51399600  0.91123187     0.19200
C1592       C  0.06732393  0.51331946  0.93311322     0.24200
C1593       C  0.05190992  0.53743798  0.94034484    -0.23800
C1594       C  0.05649016  0.56230128  0.92522796     0.19100
F1595       F  0.04191417  0.58593761  0.93128063    -0.13700
F1596       F  0.07998149  0.58707936  0.88906086    -0.16100
F1597       F  0.06455890  0.48919697  0.94778117    -0.16100
F1598       F  0.10176969  0.49066238  0.90542265    -0.13700
C1599       C  0.12206375  0.51633427  0.06069128     0.24300
C1600       C  0.12622053  0.53489792  0.08315979    -0.23800
C1601       C  0.10431539  0.55301608  0.09110218     0.19200
C1602       C  0.07895446  0.55275084  0.07671277     0.24200
C1603       C  0.07474503  0.53409116  0.05443307    -0.23800
C1604       C  0.09647823  0.51585282  0.04650456     0.19100
F1605       F  0.09324312  0.49816860  0.02447648    -0.13700
F1606       F  0.14295311  0.49905820  0.05210180    -0.16100
F1607       F  0.05810284  0.57011357  0.08522935    -0.16100
F1608       F  0.10683412  0.57019767  0.11359614    -0.13700
C1609       C  0.44080006  0.30201897  0.87379548     0.24300
C1610       C  0.42254803  0.29604805  0.89610195    -0.23800
C1611       C  0.42137791  0.31462610  0.91898137     0.19200
C1612       C  0.43742749  0.33911866  0.91904408     0.24200
C1613       C  0.45485480  0.34563031  0.89616768    -0.23800
C1614       C  0.45672085  0.32653773  0.87377995     0.19100
F1615       F  0.47413090  0.33146080  0.85185980    -0.13700
F1616       F  0.44336100  0.28399109  0.85194996    -0.16100
F1617       F  0.43483468  0.35709080  0.94094005    -0.16100
F1618       F  0.40355790  0.31000315  0.94062712    -0.13700
C1619       C  0.61074709  0.35561155  0.86618482     0.24300
C1620       C  0.61878663  0.34051569  0.89007015    -0.23800
C1621       C  0.60328715  0.34373420  0.91489787     0.19200
C1622       C  0.57992431  0.36123240  0.91570945     0.24200
C1623       C  0.57138638  0.37586836  0.89164380    -0.23800
C1624       C  0.58730430  0.37310641  0.86693623     0.19100
F1625       F  0.58025331  0.38727919  0.84340251    -0.13700
F1626       F  0.62567700  0.35358823  0.84206301    -0.16100
F1627       F  0.56500241  0.36278608  0.93986943    -0.16100
F1628       F  0.60968952  0.32875261  0.93809453    -0.13700
C1629       C  0.40397535  0.46177009  0.87330060     0.24300
C1630       C  0.42339538  0.46404384  0.89529455    -0.23800
C1631       C  0.41788312  0.48277860  0.91739022     0.19200
C1632       C  0.39399654  0.49960512  0.91698393     0.24200
C1633       C  0.37513582  0.49801766  0.89450228    -0.23800
C1634       C  0.38011267  0.47869019  0.87288491     0.19100
F1635       F  0.36174868  0.47607905  0.85140978    -0.13700
F1636       F  0.40798366  0.44307561  0.85223751    -0.16100
F1637       F  0.39024284  0.51860092  0.93781364    -0.16100
F1638       F  0.43630471  0.48589841  0.93875934    -0.13700
C1639       C  0.53896030  0.51395252  0.86849977     0.24300
C1640       C  0.54138621  0.49513230  0.89100739    -0.23800
C1641       C  0.55992031  0.50164329  0.91292498     0.19200
C1642       C  0.57595509  0.52606263  0.91218711     0.24200
C1643       C  0.57385427  0.54468711  0.88954566    -0.23800
C1644       C  0.55505572  0.53847361  0.86778750     0.19100
F1645       F  0.55192256  0.55637608  0.84602073    -0.13700
F1646       F  0.52070514  0.50887970  0.84736707    -0.16100
F1647       F  0.59458322  0.53068556  0.93307982    -0.16100
F1648       F  0.56346679  0.48378699  0.93467162    -0.13700
C1649       C  0.39854295  0.34578761  0.13824014     0.24300
C1650       C  0.38113647  0.34319106  0.11447109    -0.23800
C1651       C  0.38753649  0.35982340  0.09089320     0.19200
C1652       C  0.41119407  0.37707013  0.09057641     0.24200
C1653       C  0.42891556  0.37878509  0.11398941    -0.23800
C1654       C  0.42185787  0.36342179  0.13802526     0.19100
F1655       F  0.43809234  0.36454185  0.16127940    -0.13700
F1656       F  0.39394396  0.33075485  0.16176982    -0.16100
F1657       F  0.41662881  0.39214633  0.06715034    -0.16100
F1658       F  0.37096976  0.35985138  0.06792079    -0.13700
C1659       C  0.42654537  0.52583475  0.14377909     0.24300
C1660       C  0.42790352  0.54637222  0.12267889    -0.23800
C1661       C  0.44743643  0.54285170  0.10080820     0.19200
C1662       C  0.46367980  0.51857549  0.09898152     0.24200
C1663       C  0.46124396  0.49754377  0.11929252    -0.23800
C1664       C  0.44320602  0.50182881  0.14218691     0.19100
F1665       F  0.44047454  0.48203549  0.16233132    -0.13700
F1666       F  0.40803323  0.52794948  0.16522838    -0.16100
F1667       F  0.48196481  0.51573052  0.07738000    -0.16100
F1668       F  0.45093159  0.56291755  0.08108736    -0.13700
C1669       C  0.54503945  0.32933850  0.12739644     0.24300
C1670       C  0.54477161  0.34732209  0.10411081    -0.23800
C1671       C  0.55991805  0.33957544  0.07998493     0.19200
C1672       C  0.57613561  0.31511893  0.07977845     0.24200
C1673       C  0.57745013  0.29799987  0.10368562    -0.23800
C1674       C  0.56114770  0.30501834  0.12715124     0.19100
F1675       F  0.56076570  0.28826266  0.15003306    -0.13700
F1676       F  0.52973722  0.33527699  0.15063636    -0.16100
F1677       F  0.59175328  0.30915153  0.05677266    -0.16100
F1678       F  0.56020897  0.35631213  0.05708395    -0.13700
C1679       C  0.62302258  0.47794256  0.12685694     0.24300
C1680       C  0.62802334  0.49665617  0.10480631    -0.23800
C1681       C  0.60841451  0.49873292  0.08304850     0.19200
C1682       C  0.58375028  0.48306711  0.08385592     0.24200
C1683       C  0.57825918  0.46496192  0.10642371    -0.23800
C1684       C  0.59840542  0.46221407  0.12767344     0.19100
F1685       F  0.59436097  0.44426325  0.14926273    -0.13700
F1686       F  0.64201598  0.47495077  0.14771995    -0.16100
F1687       F  0.56463569  0.48674638  0.06321383    -0.16100
F1688       F  0.61220734  0.51720896  0.06186246    -0.13700
C1689       C  0.90393133  0.32441736  0.40140059     0.24300
C1690       C  0.88254584  0.30433373  0.40300701    -0.23800
C1691       C  0.85866360  0.30988871  0.41929447     0.19200
C1692       C  0.85667224  0.33456026  0.43463572     0.24200
C1693       C  0.87867872  0.35406476  0.43418208    -0.23800
C1694       C  0.90203327  0.34909363  0.41692354     0.19100
F1695       F  0.92315045  0.36800157  0.41524613    -0.13700
F1696       F  0.92649842  0.32040383  0.38457529    -0.16100
F1697       F  0.83391574  0.33842285  0.45127621    -0.16100
F1698       F  0.83776998  0.29079725  0.42157921    -0.13700
C1699       C  0.90697453  0.33858476  0.56156030     0.24300
C1700       C  0.88287054  0.34483177  0.54592833    -0.23800
C1701       C  0.86093019  0.32523705  0.54496434     0.19200
C1702       C  0.86287186  0.30018758  0.55976039     0.24200
C1703       C  0.88669511  0.29426185  0.57590658    -0.23800
C1704       C  0.90884366  0.31359724  0.57645640     0.19100
F1705       F  0.93179260  0.30910345  0.59248866    -0.13700
F1706       F  0.92851335  0.35701672  0.56312680    -0.16100
F1707       F  0.84148085  0.28158223  0.55809892    -0.16100
F1708       F  0.83782266  0.32994432  0.52917630    -0.13700
C1709       C  0.90008340  0.48259635  0.42104538     0.24300
C1710       C  0.87662455  0.47783202  0.43827128    -0.23800
C1711       C  0.85298747  0.49513343  0.43543525     0.19200
C1712       C  0.85340494  0.51762255  0.41685432     0.24200
C1713       C  0.87742273  0.52316706  0.40073158    -0.23800
C1714       C  0.90044413  0.50500556  0.40246420     0.19100
F1715       F  0.92317875  0.50856076  0.38577292    -0.13700
F1716       F  0.92266999  0.46537872  0.42187048    -0.16100
F1717       F  0.83071160  0.53464416  0.41561267    -0.16100
F1718       F  0.82978263  0.49097968  0.45132048    -0.13700
C1719       C  0.85723101  0.48874587  0.60282717     0.24300
C1720       C  0.88049897  0.50608014  0.60745349    -0.23800
C1721       C  0.90327435  0.50479973  0.58883940     0.19200
C1722       C  0.90288801  0.48641449  0.56609816     0.24200
C1723       C  0.87969110  0.46887981  0.56150317    -0.23800
C1724       C  0.85684729  0.47024690  0.58013664     0.19100
F1725       F  0.83439794  0.45316001  0.57690409    -0.13700
F1726       F  0.83518621  0.48904311  0.62078455    -0.16100
F1727       F  0.92501944  0.48630006  0.54823318    -0.16100
F1728       F  0.92559809  0.52203272  0.59207066    -0.13700
C1729       C  0.43144588  0.79820584  0.42196798     0.24300
C1730       C  0.43419961  0.81865583  0.44290046    -0.23800
C1731       C  0.41334267  0.83916468  0.44588782     0.19200
C1732       C  0.38954498  0.83855340  0.42900385     0.24200
C1733       C  0.38632803  0.81763538  0.40846562    -0.23800
C1734       C  0.40792651  0.79786992  0.40469905     0.19100
F1735       F  0.40673531  0.77848835  0.38395252    -0.13700
F1736       F  0.45177803  0.77875833  0.41789096    -0.16100
F1737       F  0.36918956  0.85779667  0.43369705    -0.16100
F1738       F  0.41532183  0.85909690  0.46607277    -0.13700
C1739       C  0.57069965  0.84182003  0.38890196     0.24300
C1740       C  0.58679573  0.81811407  0.38179175    -0.23800
C1741       C  0.58750642  0.79547653  0.40064993     0.19200
C1742       C  0.57140592  0.79590650  0.42503618     0.24200
C1743       C  0.55463936  0.81917469  0.43156756    -0.23800
C1744       C  0.55504965  0.84243821  0.41363213     0.19100
F1745       F  0.53933930  0.86543407  0.41932590    -0.13700
F1746       F  0.56907599  0.86413517  0.37152166    -0.16100
F1747       F  0.57249736  0.77351324  0.44241803    -0.16100
F1748       F  0.60416965  0.77296520  0.39604193    -0.13700
C1749       C  0.41737510  0.83270299  0.55677286     0.24300
C1750       C  0.44023770  0.81453363  0.55967969    -0.23800
C1751       C  0.44044805  0.79516870  0.58167752     0.19200
C1752       C  0.41821643  0.79424346  0.60076790     0.24200
C1753       C  0.39501355  0.81223034  0.59769498    -0.23800
C1754       C  0.39488384  0.83140175  0.57536664     0.19100
F1755       F  0.37251766  0.84821583  0.57067230    -0.13700
F1756       F  0.41617363  0.85090435  0.53504278    -0.16100
F1757       F  0.41983929  0.77618257  0.62254921    -0.16100
F1758       F  0.46246389  0.77754619  0.58502521    -0.13700
C1759       C  0.58157163  0.78992351  0.55664729     0.24300
C1760       C  0.56643706  0.81490209  0.55263732    -0.23800
C1761       C  0.57537104  0.83930787  0.56658187     0.19200
C1762       C  0.59864314  0.83868038  0.58421535     0.24200
C1763       C  0.61359827  0.81368275  0.58828880    -0.23800
C1764       C  0.60487533  0.78936772  0.57420269     0.19100
F1765       F  0.61931732  0.76506571  0.57680183    -0.13700
F1766       F  0.57423605  0.76596846  0.54323501    -0.16100
F1767       F  0.60584998  0.86242768  0.59802460    -0.16100
F1768       F  0.56139028  0.86383771  0.56360145    -0.13700
C1769       C  0.08528452  0.32277320  0.41219291     0.24300
C1770       C  0.11002605  0.31740541  0.39720526    -0.23800
C1771       C  0.13463893  0.33155467  0.40456394     0.19200
C1772       C  0.13448909  0.35112140  0.42621849     0.24200
C1773       C  0.10963572  0.35694832  0.44116111    -0.23800
C1774       C  0.08506962  0.34229992  0.43403662     0.19100
F1775       F  0.06075529  0.34687888  0.44804631    -0.13700
F1776       F  0.06138988  0.30873957  0.40603276    -0.16100
F1777       F  0.15859613  0.36510859  0.43166584    -0.16100
F1778       F  0.15869227  0.32740515  0.38994799    -0.13700
C1779       C  0.13136526  0.46749834  0.40241688     0.24300
C1780       C  0.10772134  0.46822466  0.42006094    -0.23800
C1781       C  0.08352031  0.48223022  0.41091460     0.19200
C1782       C  0.08337038  0.49623409  0.38531446     0.24200
C1783       C  0.10735933  0.49636632  0.36818998    -0.23800
C1784       C  0.13113827  0.48136877  0.37675912     0.19100
F1785       F  0.15429611  0.48014192  0.36028595    -0.13700
F1786       F  0.15473636  0.45315930  0.40978889    -0.16100
F1787       F  0.06019354  0.51095364  0.37820554    -0.16100
F1788       F  0.06020774  0.48331941  0.42716100    -0.13700
C1789       C  0.09018555  0.37855785  0.58597275     0.24300
C1790       C  0.11149984  0.37709724  0.56573871    -0.23800
C1791       C  0.13413336  0.35892015  0.57017024     0.19200
C1792       C  0.13516300  0.34200370  0.59390499     0.24200
C1793       C  0.11376744  0.34316457  0.61432117    -0.23800
C1794       C  0.09148515  0.36214743  0.61015394     0.19100
F1795       F  0.07105920  0.36547388  0.62961524    -0.13700
F1796       F  0.06831937  0.39639104  0.58272999    -0.16100
F1797       F  0.15687713  0.32391985  0.59604621    -0.16100
F1798       F  0.15499536  0.35669096  0.55095276    -0.13700
C1799       C  0.08994334  0.51623263  0.54225272     0.24300
C1800       C  0.11094139  0.49568684  0.54317124    -0.23800
C1801       C  0.13321195  0.49899032  0.56201967     0.19200
C1802       C  0.13426258  0.52198574  0.58000461     0.24200
C1803       C  0.11332392  0.54276126  0.57923787    -0.23800
C1804       C  0.09126489  0.53968423  0.55985546     0.19100
F1805       F  0.07112648  0.55953360  0.55746254    -0.13700
F1806       F  0.06843562  0.51396877  0.52387478    -0.16100
F1807       F  0.15531717  0.52297885  0.59893691    -0.16100
F1808       F  0.15358341  0.47927934  0.56391806    -0.13700
C1809       C  0.43431940  0.04583571  0.42826694     0.24300
C1810       C  0.45649947  0.02656905  0.42851129    -0.23800
C1811       C  0.45977278  0.00806461  0.40587813     0.19200
C1812       C  0.44139088  0.00914983  0.38310438     0.24200
C1813       C  0.41911718  0.02849029  0.38279462    -0.23800
C1814       C  0.41567773  0.04663788  0.40582091     0.19100
F1815       F  0.39367780  0.06453647  0.40725571    -0.13700
F1816       F  0.43007019  0.06330097  0.45032847    -0.16100
F1817       F  0.44592563  0.99179199  0.36104797    -0.16100
F1818       F  0.48129333  0.98952836  0.40540672    -0.13700
C1819       C  0.42457451  0.05184757  0.55615390     0.24300
C1820       C  0.44136338  0.02797199  0.55228218    -0.23800
C1821       C  0.43869167  0.00573498  0.57125678     0.19200
C1822       C  0.42050328  0.00765113  0.59409673     0.24200
C1823       C  0.40372627  0.03163961  0.59834261    -0.23800
C1824       C  0.40576691  0.05355001  0.57865407     0.19100
F1825       F  0.38955766  0.07672986  0.58080802    -0.13700
F1826       F  0.42633588  0.07369780  0.53815007    -0.16100
F1827       F  0.42061211  0.98626666  0.61264404    -0.16100
F1828       F  0.45492115  0.98254064  0.56874909    -0.13700
C1829       C  0.59752295  0.04824500  0.44967890     0.24300
C1830       C  0.58139200  0.02366931  0.45165181    -0.23800
C1831       C  0.59199589  0.99888844  0.43954761     0.19200
C1832       C  0.61716504  0.99914588  0.42442298     0.24200
C1833       C  0.63240591  0.02414960  0.42122120    -0.23800
C1834       C  0.62272530  0.04839881  0.43487103     0.19100
F1835       F  0.63774914  0.07246748  0.43404810    -0.13700
F1836       F  0.58911806  0.07232832  0.46224358    -0.16100
F1837       F  0.62577371  0.97512860  0.41191655    -0.16100
F1838       F  0.57770310  0.97445254  0.44159786    -0.13700
C1839       C  0.57180823  0.00301846  0.57684518     0.24300
C1840       C  0.55525388  0.02603261  0.56900040    -0.23800
C1841       C  0.55449746  0.04980845  0.58642209     0.19200
C1842       C  0.57046931  0.05083240  0.61075908     0.24200
C1843       C  0.58745815  0.02812143  0.61827557    -0.23800
C1844       C  0.58780902  0.00407564  0.60127038     0.19100
F1845       F  0.60467746  0.98211799  0.60747117    -0.13700
F1846       F  0.57336515  0.97987596  0.56039512    -0.16100
F1847       F  0.56903863  0.07399799  0.62719005    -0.16100
F1848       F  0.53797124  0.07203052  0.58017485    -0.13700
loop_ 
_geom_bond_atom_site_label_1 
_geom_bond_atom_site_label_2 
_geom_bond_distance 
_geom_bond_site_symmetry_2 
_ccdc_geom_bond_type 
O1           Cu9   2.014       .  S
O1           C11   1.280       .  A
O2           Cu9   2.012       .  S
O2           C12   1.278       .  A
O3           Cu9   2.007       .  S
O3           C13   1.278       .  A
O4           Cu9   2.018       .  S
O4           C14   1.279       .  A
O5          Cu10   1.999       .  S
O5           C14   1.277       .  A
O6          Cu10   1.991       .  S
O6           C13   1.276       .  A
O7          Cu10   2.009       .  S
O7           C12   1.279       .  A
O8          Cu10   2.005       .  S
O8           C11   1.277       .  A
Cu9         Cu10   2.370       .  S
C11        C1820   1.485       .  S
C12        C1830   1.489       .  S
C13        C1840   1.476       .  S
C14        C1810   1.476       .  S
O15         Cu23   2.019       .  S
O15          C25   1.279       .  A
O16         Cu23   2.016       .  S
O16          C26   1.279       .  A
O17         Cu23   2.014       .  S
O17          C27   1.278       .  A
O18         Cu23   2.003       .  S
O18          C28   1.277       .  A
O19         Cu24   1.998       .  S
O19          C28   1.277       .  A
O20         Cu24   1.998       .  S
O20          C27   1.277       .  A
O21         Cu24   1.986       .  S
O21          C26   1.275       .  A
O22         Cu24   1.994       .  S
O22          C25   1.276       .  A
Cu23        Cu24   2.369       .  S
C25        C1800   1.479       .  S
C26        C1773   1.483       .  S
C27        C1790   1.480       .  S
C28        C1780   1.480       .  S
O29         Cu37   1.999       .  S
O29          C39   1.277       .  A
O30         Cu37   2.004       .  S
O30          C40   1.278       .  A
O31         Cu37   1.999       .  S
O31          C41   1.277       .  A
O32         Cu37   2.007       .  S
O32          C42   1.277       .  A
O33         Cu38   2.001       .  S
O33          C42   1.277       .  A
O34         Cu38   2.003       .  S
O34          C41   1.277       .  A
O35         Cu38   1.998       .  S
O35          C40   1.277       .  A
O36         Cu38   2.006       .  S
O36          C39   1.278       .  A
Cu37        Cu38   2.372       .  S
C39        C1760   1.484       .  S
C40        C1730   1.473       .  S
C41        C1743   1.478       .  S
C42        C1750   1.471       .  S
O43         Cu51   2.001       .  S
O43          C53   1.277       .  A
O44         Cu51   1.991       .  S
O44          C54   1.276       .  A
O45         Cu51   1.989       .  S
O45          C55   1.276       .  A
O46         Cu51   1.993       .  S
O46          C56   1.276       .  A
O47         Cu52   2.004       .  S
O47          C56   1.278       .  A
O48         Cu52   2.006       .  S
O48          C55   1.278       .  A
O49         Cu52   1.988       .  S
O49          C54   1.276       .  A
O50         Cu52   2.001       .  S
O50          C53   1.277       .  A
Cu51        Cu52   2.372       .  S
C53        C1723   1.480       .  S
C54        C1693   1.469       .  S
C55        C1710   1.477       .  S
C56        C1700   1.476       .  S
O57         Cu65   2.010       .  S
O57          C67   1.279       .  A
O58         Cu65   2.012       .  S
O58          C68   1.279       .  A
O59         Cu65   2.001       .  S
O59          C69   1.276       .  A
O60         Cu65   1.994       .  S
O60          C70   1.277       .  A
O61         Cu66   2.022       .  S
O61          C70   1.279       .  A
O62         Cu66   2.017       .  S
O62          C69   1.280       .  A
O63         Cu66   1.999       .  S
O63          C68   1.276       .  A
O64         Cu66   2.007       .  S
O64          C67   1.278       .  A
Cu65        Cu66   2.369       .  S
C67        C1653   1.488       .  S
C68        C1683   1.480       .  S
C69        C1663   1.479       .  S
C70        C1670   1.483       .  S
O71         Cu79   2.009       .  S
O71          C81   1.278       .  A
O72         Cu79   2.010       .  S
O72          C82   1.278       .  A
O73         Cu79   2.001       .  S
O73          C83   1.277       .  A
O74         Cu79   2.002       .  S
O74          C84   1.277       .  A
O75         Cu80   2.005       .  S
O75          C84   1.278       .  A
O76         Cu80   2.006       .  S
O76          C83   1.278       .  A
O77         Cu80   2.013       .  S
O77          C82   1.279       .  A
O78         Cu80   2.019       .  S
O78          C81   1.279       .  A
Cu79        Cu80   2.369       .  S
C81        C1640   1.486       .  S
C82        C1613   1.484       .  S
C83        C1623   1.483       .  S
C84        C1630   1.478       .  S
O85         Cu93   2.005       .  S
O85          C95   1.278       .  A
O86         Cu93   2.013   1_656  S
O86          C96   1.278       .  A
O87         Cu93   2.003   1_655  S
O87          C97   1.278       .  A
O88         Cu93   2.006   1_556  S
O88          C98   1.278       .  A
O89         Cu94   1.991   1_556  S
O89          C98   1.276       .  A
O90         Cu94   2.002   1_655  S
O90          C97   1.277       .  A
O91         Cu94   2.009   1_656  S
O91          C96   1.278       .  A
O92         Cu94   2.006       .  S
O92          C95   1.277       .  A
Cu93        Cu94   2.369       .  S
C95        C1603   1.473       .  S
C96        C1570   1.491       .  S
C97        C1583   1.481       .  S
C98        C1593   1.480       .  S
O99        Cu107   2.002       .  S
O99         C109   1.278       .  A
O100       Cu107   2.000   1_554  S
O100        C110   1.277       .  A
O101       Cu107   2.005   1_554  S
O101        C111   1.278       .  A
O102       Cu107   2.005       .  S
O102        C112   1.278       .  A
O103       Cu108   2.001       .  S
O103        C112   1.277       .  A
O104       Cu108   1.996   1_554  S
O104        C111   1.277       .  A
O105       Cu108   2.008   1_554  S
O105        C110   1.278       .  A
O106       Cu108   2.009       .  S
O106        C109   1.278       .  A
Cu107      Cu108   2.368       .  S
C109       C1533   1.485       .  S
C110       C1563   1.486       .  S
C111       C1553   1.484       .  S
C112       C1540   1.478       .  S
O113       Cu121   1.997   1_455  S
O113        C123   1.276       .  A
O114       Cu121   2.000   1_556  S
O114        C124   1.277       .  A
O115       Cu121   2.003   1_456  S
O115        C125   1.278       .  A
O116       Cu121   2.010       .  S
O116        C126   1.279       .  A
O117       Cu122   1.985       .  S
O117        C126   1.275       .  A
O118       Cu122   1.993   1_456  S
O118        C125   1.276       .  A
O119       Cu122   2.001   1_556  S
O119        C124   1.277       .  A
O120       Cu122   1.998   1_455  S
O120        C123   1.276       .  A
Cu121      Cu122   2.372       .  S
C123       C1520   1.465       .  S
C124       C1493   1.477       .  S
C125       C1503   1.481       .  S
C126       C1510   1.480       .  S
O127       Cu135   2.004   1_554  S
O127        C137   1.277       .  A
O128       Cu135   2.007       .  S
O128        C138   1.277       .  A
O129       Cu135   2.022       .  S
O129        C139   1.280       .  A
O130       Cu135   2.025   1_554  S
O130        C140   1.281       .  A
O131       Cu136   1.998   1_554  S
O131        C140   1.276       .  A
O132       Cu136   1.995       .  S
O132        C139   1.276       .  A
O133       Cu136   2.006       .  S
O133        C138   1.278       .  A
O134       Cu136   2.005   1_554  S
O134        C137   1.278       .  A
Cu135      Cu136   2.366       .  S
C137       C1480   1.486       .  S
C138       C1450   1.484       .  S
C139       C1470   1.486       .  S
C140       C1460   1.491       .  S
O141       Cu149   1.996       .  S
O141        C151   1.276       .  A
O142       Cu149   1.998   1_455  S
O142        C152   1.278       .  A
O143       Cu149   1.991   1_455  S
O143        C153   1.276       .  A
O144       Cu149   1.990       .  S
O144        C154   1.276       .  A
O145       Cu150   2.012       .  S
O145        C154   1.279       .  A
O146       Cu150   2.004   1_455  S
O146        C153   1.278       .  A
O147       Cu150   2.012   1_455  S
O147        C152   1.278       .  A
O148       Cu150   2.016       .  S
O148        C151   1.279       .  A
Cu149      Cu150   2.371       .  S
C151       C1410   1.481       .  S
C152       C1440   1.480       .  S
C153       C1430   1.474       .  S
C154       C1420   1.477       .  S
O155       Cu163   2.006       .  S
O155        C165   1.278       .  A
O156       Cu163   2.016   1_455  S
O156        C166   1.277       .  A
O157       Cu163   2.020   1_455  S
O157        C167   1.280       .  A
O158       Cu163   2.010       .  S
O158        C168   1.278       .  A
O159       Cu164   1.991   1_655  S
O159        C168   1.276       .  A
O160       Cu164   1.993       .  S
O160        C167   1.276       .  A
O161       Cu164   1.993       .  S
O161        C166   1.277       .  A
O162       Cu164   2.003   1_655  S
O162        C165   1.277       .  A
Cu163      Cu164   2.371   1_655  S
C165       C1390   1.486       .  S
C166       C1380   1.471       .  S
C167       C1400   1.483       .  S
C168       C1370   1.473       .  S
N169        N170   1.318       .  A
N169        C173   1.344       .  A
N169       Cu177   2.067       .  S
N170        C171   1.342       .  A
N170       Cu176   2.054       .  S
C171        C172   1.385       .  A
C171        H174   1.082       .  S
C172       C1763   1.481       .  S
C172        C173   1.387       .  A
C173        H175   1.081       .  S
Cu176       N179   2.055       .  S
Cu177       N187   2.066       .  S
Cu178       N180   2.179       .  S
Cu178       N186   2.178       .  S
N179        N180   1.326       .  A
N179        C183   1.347       .  A
N180        C181   1.360       .  A
C181        C182   1.404       .  A
C181        H184   1.082       .  S
C182       C1231   1.504       .  S
C182        C183   1.375       .  A
C183        H185   1.082       .  S
N186        N187   1.324       .  A
N186        C190   1.365       .  A
N187        C188   1.343       .  A
C188        C189   1.381       .  A
C188        H191   1.082       .  S
C189        C213   1.500       .  S
C189        C190   1.408       .  A
C190        H192   1.082       .  S
N193        N194   1.318       .  A
N193        C197   1.344       .  A
N193       Cu201   2.063   1_545  S
N194        C195   1.340       .  A
N194       Cu200   2.046       .  S
C195        C196   1.382       .  A
C195        H198   1.082       .  S
C196       C1843   1.474       .  S
C196        C197   1.385       .  A
C197        H199   1.082   1_545  S
Cu200       N203   2.047       .  S
Cu201       N211   2.062       .  S
Cu202       N204   2.179       .  S
Cu202       N210   2.178   1_545  S
N203        N204   1.326       .  A
N203        C207   1.345       .  A
N204        C205   1.360       .  A
C205        C206   1.403       .  A
C205        H208   1.082       .  S
C206       C1243   1.500       .  S
C206        C207   1.373       .  A
C207        H209   1.082       .  S
N210        N211   1.324       .  A
N210        C214   1.365       .  A
N211        C212   1.343       .  A
C212        C213   1.380       .  A
C212        H215   1.082       .  S
C213        C214   1.409       .  A
C214        H216   1.082       .  S
N217        N218   1.319       .  A
N217        C221   1.343       .  A
N217       Cu225   2.068       .  S
N218        C219   1.344       .  A
N218       Cu224   2.061       .  S
C219        C220   1.384       .  A
C219        H222   1.082       .  S
C220       C1720   1.477       .  S
C220        C221   1.385       .  A
C221        H223   1.082       .  S
Cu224       N227   2.063       .  S
Cu225       N235   2.068       .  S
Cu226       N228   2.180       .  S
Cu226       N234   2.178       .  S
N227        N228   1.327       .  A
N227        C231   1.348       .  A
N228        C229   1.360       .  A
C229        C230   1.402       .  A
C229        H232   1.082       .  S
C230       C1233   1.505       .  S
C230        C231   1.376       .  A
C231        H233   1.082       .  S
N234        N235   1.323       .  A
N234        C238   1.366       .  A
N235        C236   1.344       .  A
C236        C237   1.383       .  A
C236        H239   1.082       .  S
C237        C261   1.504   1_655  S
C237        C238   1.409       .  A
C238        H240   1.082       .  S
N241        N242   1.317       .  A
N241        C245   1.344       .  A
N241       Cu249   2.059       .  S
N242        C243   1.343       .  A
N242       Cu248   2.068       .  S
C243        C244   1.392       .  A
C243        H246   1.080       .  S
C244       C1803   1.491       .  S
C244        C245   1.389       .  A
C245        H247   1.081       .  S
Cu248       N251   2.070       .  S
Cu249       N259   2.057       .  S
Cu250       N252   2.194       .  S
Cu250       N258   2.192       .  S
N251        N252   1.327       .  A
N251        C255   1.348       .  A
N252        C253   1.364       .  A
C253        C254   1.407       .  A
C253        H256   1.082       .  S
C254       C1225   1.516       .  S
C254        C255   1.379       .  A
C255        H257   1.081       .  S
N258        N259   1.324       .  A
N258        C262   1.368       .  A
N259        C260   1.342       .  A
C260        C261   1.379       .  A
C260        H263   1.082       .  S
C261        C262   1.411       .  A
C262        H264   1.082       .  S
N265        N266   1.320       .  A
N265        C269   1.344       .  A
N265       Cu273   2.072       .  S
N266        C267   1.347       .  A
N266       Cu272   2.077       .  S
C267        C268   1.387       .  A
C267        H270   1.082       .  S
C268       C1643   1.485       .  S
C268        C269   1.387       .  A
C269        H271   1.082       .  S
Cu272       N275   2.078       .  S
Cu273       N283   2.072       .  S
Cu274       N276   2.152       .  S
Cu274       N282   2.151       .  S
N275        N276   1.327       .  A
N275        C279   1.348       .  A
N276        C277   1.357       .  A
C277        C278   1.397       .  A
C277        H280   1.082       .  S
C278       C1235   1.502       .  S
C278        C279   1.380       .  A
C279        H281   1.082       .  S
N282        N283   1.323       .  A
N282        C286   1.360       .  A
N283        C284   1.344       .  A
C284        C285   1.382       .  A
C284        H287   1.082       .  S
C285        C309   1.492   1_556  S
C285        C286   1.402       .  A
C286        H288   1.082       .  S
N289        N290   1.318       .  A
N289        C293   1.345       .  A
N289       Cu297   2.066       .  S
N290        C291   1.341       .  A
N290       Cu296   2.053       .  S
C291        C292   1.382       .  A
C291        H294   1.082       .  S
C292       C1680   1.475       .  S
C292        C293   1.387       .  A
C293        H295   1.082       .  S
Cu296       N299   2.053       .  S
Cu297       N307   2.064       .  S
Cu298       N300   2.163       .  S
Cu298       N306   2.162       .  S
N299        N300   1.325       .  A
N299        C303   1.345       .  A
N300        C301   1.358       .  A
C301        C302   1.401       .  A
C301        H304   1.082       .  S
C302       C1237   1.501       .  S
C302        C303   1.376       .  A
C303        H305   1.081       .  S
N306        N307   1.325       .  A
N306        C310   1.361       .  A
N307        C308   1.343       .  A
C308        C309   1.379       .  A
C308        H311   1.083       .  S
C309        C310   1.404       .  A
C310        H312   1.082       .  S
N313        N314   1.317       .  A
N313        C317   1.343       .  A
N313       Cu321   2.064       .  S
N314        C315   1.341       .  A
N314       Cu320   2.036       .  S
C315        C316   1.382       .  A
C315        H318   1.082       .  S
C316       C1713   1.475       .  S
C316        C317   1.387       .  A
C317        H319   1.082       .  S
Cu320       N323   2.036       .  S
Cu321       N331   2.063       .  S
Cu322       N324   2.190       .  S
Cu322       N330   2.189       .  S
N323        N324   1.326       .  A
N323        C327   1.344       .  A
N324        C325   1.362       .  A
C325        C326   1.407       .  A
C325        H328   1.082       .  S
C326       C1239   1.502       .  S
C326        C327   1.370       .  A
C327        H329   1.082       .  S
N330        N331   1.325       .  A
N330        C334   1.367       .  A
N331        C332   1.343       .  A
C332        C333   1.380       .  A
C332        H335   1.082       .  S
C333        C357   1.503   1_655  S
C333        C334   1.410       .  A
C334        H336   1.082       .  S
N337        N338   1.317       .  A
N337        C341   1.344       .  A
N337       Cu345   2.070       .  S
N338        C339   1.340       .  A
N338       Cu344   2.043       .  S
C339        C340   1.383       .  A
C339        H342   1.082       .  S
C340       C1783   1.479       .  S
C340        C341   1.389       .  A
C341        H343   1.081       .  S
Cu344       N347   2.044       .  S
Cu345       N355   2.071       .  S
Cu346       N348   2.180       .  S
Cu346       N354   2.180       .  S
N347        N348   1.325       .  A
N347        C351   1.345       .  A
N348        C349   1.360       .  A
C349        C350   1.405       .  A
C349        H352   1.082       .  S
C350       C1303   1.503       .  S
C350        C351   1.374       .  A
C351        H353   1.081       .  S
N354        N355   1.325       .  A
N354        C358   1.366       .  A
N355        C356   1.344       .  A
C356        C357   1.382       .  A
C356        H359   1.082       .  S
C357        C358   1.409       .  A
C358        H360   1.082       .  S
N361        N362   1.317       .  A
N361        C365   1.343       .  A
N361       Cu369   2.059       .  S
N362        C363   1.341       .  A
N362       Cu368   2.057       .  S
C363        C364   1.389       .  A
C363        H366   1.080       .  S
C364       C1740   1.488       .  S
C364        C365   1.389       .  A
C365        H367   1.081       .  S
Cu368       N371   2.060       .  S
Cu369       N379   2.057       .  S
Cu370       N372   2.157       .  S
Cu370       N378   2.156       .  S
N371        N372   1.326       .  A
N371        C375   1.346       .  A
N372        C373   1.357       .  A
C373        C374   1.399       .  A
C373        H376   1.081       .  S
C374       C1241   1.500       .  S
C374        C375   1.378       .  A
C375        H377   1.081       .  S
N378        N379   1.323       .  A
N378        C382   1.360       .  A
N379        C380   1.342       .  A
C380        C381   1.379       .  A
C380        H383   1.083       .  S
C381        C405   1.489       .  S
C381        C382   1.403       .  A
C382        H384   1.082       .  S
N385        N386   1.318       .  A
N385        C389   1.347       .  A
N385       Cu393   2.073   1_545  S
N386        C387   1.340       .  A
N386       Cu392   2.059       .  S
C387        C388   1.386       .  A
C387        H390   1.081       .  S
C388       C1833   1.487       .  S
C388        C389   1.391       .  A
C389        H391   1.081   1_545  S
Cu392       N395   2.059       .  S
Cu393       N403   2.071       .  S
Cu394       N396   2.153       .  S
Cu394       N402   2.153   1_545  S
N395        N396   1.324       .  A
N395        C399   1.347       .  A
N396        C397   1.357       .  A
C397        C398   1.400       .  A
C397        H400   1.082       .  S
C398       C1311   1.500       .  S
C398        C399   1.378       .  A
C399        H401   1.082       .  S
N402        N403   1.325       .  A
N402        C406   1.359       .  A
N403        C404   1.344       .  A
C404        C405   1.381       .  A
C404        H407   1.082       .  S
C405        C406   1.401       .  A
C406        H408   1.082       .  S
N409        N410   1.317       .  A
N409        C413   1.345       .  A
N409       Cu417   2.069       .  S
N410        C411   1.339       .  A
N410       Cu416   2.036       .  S
C411        C412   1.381       .  A
C411        H414   1.082       .  S
C412       C1703   1.476       .  S
C412        C413   1.389       .  A
C413        H415   1.082       .  S
Cu416       N419   2.037       .  S
Cu417       N427   2.070       .  S
Cu418       N420   2.166       .  S
Cu418       N426   2.166       .  S
N419        N420   1.324       .  A
N419        C423   1.343       .  A
N420        C421   1.359       .  A
C421        C422   1.402       .  A
C421        H424   1.082       .  S
C422       C1245   1.497       .  S
C422        C423   1.373       .  A
C423        H425   1.082       .  S
N426        N427   1.325       .  A
N426        C430   1.363       .  A
N427        C428   1.343       .  A
C428        C429   1.380       .  A
C428        H431   1.082       .  S
C429        C453   1.495   1_655  S
C429        C430   1.404       .  A
C430        H432   1.082       .  S
N433        N434   1.316       .  A
N433        C437   1.343       .  A
N433       Cu441   2.065       .  S
N434        C435   1.343       .  A
N434       Cu440   2.064       .  S
C435        C436   1.393       .  A
C435        H438   1.079       .  S
C436       C1793   1.496       .  S
C436        C437   1.392       .  A
C437        H439   1.080       .  S
Cu440       N443   2.065       .  S
Cu441       N451   2.064       .  S
Cu442       N444   2.168       .  S
Cu442       N450   2.167       .  S
N443        N444   1.326       .  A
N443        C447   1.347       .  A
N444        C445   1.359       .  A
C445        C446   1.401       .  A
C445        H448   1.082       .  S
C446       C1298   1.504       .  S
C446        C447   1.377       .  A
C447        H449   1.082       .  S
N450        N451   1.324       .  A
N450        C454   1.363       .  A
N451        C452   1.343       .  A
C452        C453   1.381       .  A
C452        H455   1.082       .  S
C453        C454   1.405       .  A
C454        H456   1.082       .  S
N457        N458   1.316       .  A
N457        C461   1.342       .  A
N457       Cu465   2.061       .  S
N458        C459   1.344       .  A
N458       Cu464   2.052       .  S
C459        C460   1.388       .  A
C459        H462   1.081       .  S
C460       C1753   1.484       .  S
C460        C461   1.388       .  A
C461        H463   1.081       .  S
Cu464       N467   2.054       .  S
Cu465       N475   2.057       .  S
Cu466       N468   2.195       .  S
Cu466       N474   2.192       .  S
N467        N468   1.328       .  A
N467        C471   1.346       .  A
N468        C469   1.362       .  A
C469        C470   1.406       .  A
C469        H472   1.082       .  S
C470       C1227   1.506       .  S
C470        C471   1.373       .  A
C471        H473   1.082       .  S
N474        N475   1.323       .  A
N474        C478   1.370       .  A
N475        C476   1.340       .  A
C476        C477   1.381       .  A
C476        H479   1.083       .  S
C477        C501   1.508       .  S
C477        C478   1.414       .  A
C478        H480   1.082       .  S
N481        N482   1.316       .  A
N481        C485   1.341       .  A
N481       Cu489   2.061       .  S
N482        C483   1.347       .  A
N482       Cu488   2.073       .  S
C483        C484   1.396       .  A
C483        H486   1.080       .  S
C484       C1823   1.499       .  S
C484        C485   1.391       .  A
C485        H487   1.079   1_545  S
Cu488       N491   2.075       .  S
Cu489       N499   2.059   1_545  S
Cu490       N492   2.190       .  S
Cu490       N498   2.187   1_545  S
N491        N492   1.329       .  A
N491        C495   1.349       .  A
N492        C493   1.361       .  A
C493        C494   1.403       .  A
C493        H496   1.082       .  S
C494       C1302   1.509       .  S
C494        C495   1.378       .  A
C495        H497   1.082       .  S
N498        N499   1.322       .  A
N498        C502   1.369       .  A
N499        C500   1.341       .  A
C500        C501   1.382       .  A
C500        H503   1.083       .  S
C501        C502   1.413       .  A
C502        H504   1.082       .  S
N505        N506   1.318       .  A
N505        C509   1.344       .  A
N505       Cu513   2.069       .  S
N506        C507   1.342       .  A
N506       Cu512   2.051       .  S
C507        C508   1.384       .  A
C507        H510   1.082       .  S
C508       C1620   1.479       .  S
C508        C509   1.387       .  A
C509        H511   1.082       .  S
Cu512       N515   2.051       .  S
Cu513       N523   2.068       .  S
Cu514       N516   2.159       .  S
Cu514       N522   2.158       .  S
N515        N516   1.325       .  A
N515        C519   1.345       .  A
N516        C517   1.357       .  A
C517        C518   1.400       .  A
C517        H520   1.082       .  S
C518       C1247   1.496       .  S
C518        C519   1.374       .  A
C519        H521   1.082       .  S
N522        N523   1.324       .  A
N522        C526   1.361       .  A
N523        C524   1.343       .  A
C524        C525   1.381       .  A
C524        H527   1.082       .  S
C525        C549   1.493   1_556  S
C525        C526   1.403       .  A
C526        H528   1.082       .  S
N529        N530   1.319       .  A
N529        C533   1.346       .  A
N529       Cu537   2.065       .  S
N530        C531   1.342       .  A
N530       Cu536   2.069       .  S
C531        C532   1.386       .  A
C531        H534   1.082       .  S
C532       C1673   1.482       .  S
C532        C533   1.386       .  A
C533        H535   1.082       .  S
Cu536       N539   2.070       .  S
Cu537       N547   2.064       .  S
Cu538       N540   2.162       .  S
Cu538       N546   2.161       .  S
N539        N540   1.326       .  A
N539        C543   1.349       .  A
N540        C541   1.358       .  A
C541        C542   1.400       .  A
C541        H544   1.082       .  S
C542       C1309   1.505       .  S
C542        C543   1.380       .  A
C543        H545   1.082       .  S
N546        N547   1.324       .  A
N546        C550   1.361       .  A
N547        C548   1.343       .  A
C548        C549   1.380       .  A
C548        H551   1.082       .  S
C549        C550   1.404       .  A
C550        H552   1.082       .  S
N553        N554   1.319       .  A
N553        C557   1.343       .  A
N553       Cu561   2.060       .  S
N554        C555   1.344       .  A
N554       Cu560   2.065       .  S
C555        C556   1.385       .  A
C555        H558   1.082       .  S
C556       C1633   1.476       .  S
C556        C557   1.384       .  A
C557        H559   1.082       .  S
Cu560       N563   2.067       .  S
Cu561       N571   2.058       .  S
Cu562       N564   2.169       .  S
Cu562       N570   2.167       .  S
N563        N564   1.327       .  A
N563        C567   1.347       .  A
N564        C565   1.359       .  A
C565        C566   1.401       .  A
C565        H568   1.082       .  S
C566       C1229   1.505       .  S
C566        C567   1.378       .  A
C567        H569   1.082       .  S
N570        N571   1.323       .  A
N570        C574   1.363       .  A
N571        C572   1.342       .  A
C572        C573   1.379       .  A
C572        H575   1.082       .  S
C573        C597   1.495   1_556  S
C573        C574   1.406       .  A
C574        H576   1.082       .  S
N577        N578   1.318       .  A
N577        C581   1.343       .  A
N577       Cu585   2.069       .  S
N578        C579   1.344       .  A
N578       Cu584   2.062       .  S
C579        C580   1.390       .  A
C579        H582   1.081       .  S
C580       C1660   1.489       .  S
C580        C581   1.389       .  A
C581        H583   1.081       .  S
Cu584       N587   2.064       .  S
Cu585       N595   2.070       .  S
Cu586       N588   2.157       .  S
Cu586       N594   2.157       .  S
N587        N588   1.327       .  A
N587        C591   1.346       .  A
N588        C589   1.357       .  A
C589        C590   1.398       .  A
C589        H592   1.082       .  S
C590       C1307   1.499       .  S
C590        C591   1.377       .  A
C591        H593   1.082       .  S
N594        N595   1.323       .  A
N594        C598   1.362       .  A
N595        C596   1.343       .  A
C596        C597   1.381       .  A
C596        H599   1.082       .  S
C597        C598   1.404       .  A
C598        H600   1.082       .  S
N601        N602   1.317       .  A
N601        C605   1.343       .  A
N601       Cu609   2.060       .  S
N602        C603   1.341       .  A
N602       Cu608   2.051       .  S
C603        C604   1.386       .  A
C603        H606   1.081       .  S
C604       C1733   1.483       .  S
C604        C605   1.388       .  A
C605        H607   1.082       .  S
Cu608       N611   2.053       .  S
Cu609       N619   2.057       .  S
Cu610       N612   2.160       .  S
Cu610       N618   2.159       .  S
N611        N612   1.326       .  A
N611        C615   1.345       .  A
N612        C613   1.357       .  A
C613        C614   1.400       .  A
C613        H616   1.082       .  S
C614       C1305   1.499       .  S
C614        C615   1.375       .  A
C615        H617   1.082       .  S
N618        N619   1.323       .  A
N618        C622   1.361       .  A
N619        C620   1.341       .  A
C620        C621   1.379       .  A
C620        H623   1.082       .  S
C621        C645   1.491       .  S
C621        C622   1.404       .  A
C622        H624   1.082       .  S
N625        N626   1.319       .  A
N625        C629   1.345       .  A
N625       Cu633   2.070   1_545  S
N626        C627   1.343       .  A
N626       Cu632   2.065       .  S
C627        C628   1.388       .  A
C627        H630   1.081       .  S
C628       C1813   1.486       .  S
C628        C629   1.388       .  A
C629        H631   1.082   1_545  S
Cu632       N635   2.066       .  S
Cu633       N643   2.068       .  S
Cu634       N636   2.151       .  S
Cu634       N642   2.150   1_545  S
N635        N636   1.326       .  A
N635        C639   1.347       .  A
N636        C637   1.356       .  A
C637        C638   1.397       .  A
C637        H640   1.082       .  S
C638       C1363   1.496       .  S
C638        C639   1.377       .  A
C639        H641   1.081       .  S
N642        N643   1.323       .  A
N642        C646   1.360       .  A
N643        C644   1.342       .  A
C644        C645   1.382       .  A
C644        H647   1.082       .  S
C645        C646   1.402       .  A
C646        H648   1.082       .  S
N649        N650   1.315       .  A
N649        C653   1.344       .  A
N649       Cu657   2.059       .  S
N650        C651   1.336       .  A
N650       Cu656   2.019       .  S
C651        C652   1.378       .  A
C651        H654   1.082       .  S
C652       C1690   1.470       .  S
C652        C653   1.388       .  A
C653        H655   1.082       .  S
Cu656       N659   2.020       .  S
Cu657       N667   2.060       .  S
Cu658       N660   2.181       .  S
Cu658       N666   2.181       .  S
N659        N660   1.323       .  A
N659        C663   1.341       .  A
N660        C661   1.361       .  A
C661        C662   1.407       .  A
C661        H664   1.081       .  S
C662       C1313   1.498       .  S
C662        C663   1.369       .  A
C663        H665   1.082       .  S
N666        N667   1.326       .  A
N666        C670   1.365       .  A
N667        C668   1.341       .  A
C668        C669   1.378       .  A
C668        H671   1.083       .  S
C669        C693   1.497   1_655  S
C669        C670   1.407       .  A
C670        H672   1.082       .  S
N673        N674   1.319       .  A
N673        C677   1.344       .  A
N673       Cu681   2.068       .  S
N674        C675   1.340       .  A
N674       Cu680   2.043       .  S
C675        C676   1.381       .  A
C675        H678   1.082       .  S
C676       C1770   1.473       .  S
C676        C677   1.385       .  A
C677        H679   1.082       .  S
Cu680       N683   2.042       .  S
Cu681       N691   2.066       .  S
Cu682       N684   2.161       .  S
Cu682       N690   2.160       .  S
N683        N684   1.325       .  A
N683        C687   1.344       .  A
N684        C685   1.357       .  A
C685        C686   1.400       .  A
C685        H688   1.082       .  S
C686       C1365   1.494       .  S
C686        C687   1.372       .  A
C687        H689   1.082       .  S
N690        N691   1.323       .  A
N690        C694   1.363       .  A
N691        C692   1.342       .  A
C692        C693   1.382       .  A
C692        H695   1.082       .  S
C693        C694   1.406       .  A
C694        H696   1.082       .  S
N697        N698   1.319       .  A
N697        C701   1.346       .  A
N697       Cu705   2.067       .  S
N698        C699   1.343       .  A
N698       Cu704   2.066       .  S
C699        C700   1.386       .  A
C699        H702   1.082       .  S
C700       C1610   1.483       .  S
C700        C701   1.388       .  A
C701        H703   1.082       .  S
Cu704       N707   2.068       .  S
Cu705       N715   2.065       .  S
Cu706       N708   2.168       .  S
Cu706       N714   2.167       .  S
N707        N708   1.326       .  A
N707        C711   1.348       .  A
N708        C709   1.359       .  A
C709        C710   1.402       .  A
C709        H712   1.081       .  S
C710       C1300   1.508       .  S
C710        C711   1.380       .  A
C711        H713   1.081       .  S
N714        N715   1.324       .  A
N714        C718   1.363       .  A
N715        C716   1.343       .  A
C716        C717   1.380       .  A
C716        H719   1.082       .  S
C717        C741   1.495   1_556  S
C717        C718   1.406       .  A
C718        H720   1.082       .  S
N721        N722   1.316       .  A
N721        C725   1.344       .  A
N721       Cu729   2.070       .  S
N722        C723   1.342       .  A
N722       Cu728   2.064       .  S
C723        C724   1.394       .  A
C723        H726   1.078       .  S
C724       C1650   1.502       .  S
C724        C725   1.396       .  A
C725        H727   1.079       .  S
Cu728       N731   2.065       .  S
Cu729       N739   2.068       .  S
Cu730       N732   2.169       .  S
Cu730       N738   2.168       .  S
N731        N732   1.326       .  A
N731        C735   1.348       .  A
N732        C733   1.359       .  A
C733        C734   1.402       .  A
C733        H736   1.082       .  S
C734       C1367   1.505       .  S
C734        C735   1.377       .  A
C735        H737   1.082       .  S
N738        N739   1.324       .  A
N738        C742   1.363       .  A
N739        C740   1.343       .  A
C740        C741   1.381       .  A
C740        H743   1.082       .  S
C741        C742   1.406       .  A
C742        H744   1.082       .  S
N745        N746   1.318       .  A
N745        C749   1.345       .  A
N745       Cu753   2.069       .  S
N746        C747   1.340       .  A
N746       Cu752   2.045       .  S
C747        C748   1.382       .  A
C747        H750   1.082       .  S
C748       C1523   1.476       .  S
C748        C749   1.387       .  A
C749        H751   1.082       .  S
Cu752       N755   2.046       .  S
Cu753       N763   2.070       .  S
Cu754       N756   2.176       .  S
Cu754       N762   2.176       .  S
N755        N756   1.325       .  A
N755        C759   1.345       .  A
N756        C757   1.360       .  A
C757        C758   1.404       .  A
C757        H760   1.082       .  S
C758       C1366   1.502       .  S
C758        C759   1.374       .  A
C759        H761   1.082       .  S
N762        N763   1.325       .  A
N762        C766   1.364       .  A
N763        C764   1.344       .  A
C764        C765   1.381       .  A
C764        H767   1.082       .  S
C765        C789   1.499       .  S
C765        C766   1.407       .  A
C766        H768   1.082       .  S
N769        N770   1.317       .  A
N769        C773   1.345       .  A
N769       Cu777   2.067       .  S
N770        C771   1.340       .  A
N770       Cu776   2.047       .  S
C771        C772   1.384       .  A
C771        H774   1.082       .  S
C772       C1600   1.479       .  S
C772        C773   1.388       .  A
C773        H775   1.082       .  S
Cu776       N779   2.048       .  S
Cu777       N787   2.067       .  S
Cu778       N780   2.180       .  S
Cu778       N786   2.180       .  S
N779        N780   1.325       .  A
N779        C783   1.344       .  A
N780        C781   1.362       .  A
C781        C782   1.406       .  A
C781        H784   1.082       .  S
C782       C1308   1.507       .  S
C782        C783   1.375       .  A
C783        H785   1.081       .  S
N786        N787   1.325       .  A
N786        C790   1.365       .  A
N787        C788   1.343       .  A
C788        C789   1.379       .  A
C788        H791   1.082       .  S
C789        C790   1.407       .  A
C790        H792   1.082       .  S
N793        N794   1.319       .  A
N793        C797   1.345       .  A
N793       Cu801   2.066       .  S
N794        C795   1.342       .  A
N794       Cu800   2.064       .  S
C795        C796   1.387       .  A
C795        H798   1.082       .  S
C796       C1483   1.485       .  S
C796        C797   1.388       .  A
C797        H799   1.081       .  S
Cu800       N803   2.065       .  S
Cu801       N811   2.065       .  S
Cu802       N804   2.157       .  S
Cu802       N810   2.156       .  S
N803        N804   1.325       .  A
N803        C807   1.347       .  A
N804        C805   1.358       .  A
C805        C806   1.400       .  A
C805        H808   1.082       .  S
C806       C1368   1.503       .  S
C806        C807   1.380       .  A
C807        H809   1.082       .  S
N810        N811   1.325       .  A
N810        C814   1.359       .  A
N811        C812   1.344       .  A
C812        C813   1.380       .  A
C812        H815   1.082       .  S
C813        C837   1.490       .  S
C813        C814   1.401       .  A
C814        H816   1.082       .  S
N817        N818   1.317       .  A
N817        C821   1.344       .  A
N817       Cu825   2.074       .  S
N818        C819   1.340       .  A
N818       Cu824   2.048       .  S
C819        C820   1.386       .  A
C819        H822   1.081       .  S
C820       C1560   1.489   1_545  S
C820        C821   1.392       .  A
C821        H823   1.080       .  S
Cu824       N827   2.049       .  S
Cu825       N835   2.075       .  S
Cu826       N828   2.147       .  S
Cu826       N834   2.147       .  S
N827        N828   1.324       .  A
N827        C831   1.344       .  A
N828        C829   1.355       .  A
C829        C830   1.398       .  A
C829        H832   1.082       .  S
C830       C1310   1.493       .  S
C830        C831   1.375       .  A
C831        H833   1.081       .  S
N834        N835   1.325       .  A
N834        C838   1.359       .  A
N835        C836   1.345       .  A
C836        C837   1.381       .  A
C836        H839   1.082       .  S
C837        C838   1.400       .  A
C838        H840   1.082       .  S
N841        N842   1.318       .  A
N841        C845   1.345       .  A
N841       Cu849   2.069       .  S
N842        C843   1.342       .  A
N842       Cu848   2.054       .  S
C843        C844   1.385       .  A
C843        H846   1.082       .  S
C844       C1473   1.480       .  S
C844        C845   1.387       .  A
C845        H847   1.081       .  S
Cu848       N851   2.054       .  S
Cu849       N859   2.067       .  S
Cu850       N852   2.153       .  S
Cu850       N858   2.151       .  S
N851        N852   1.325       .  A
N851        C855   1.345       .  A
N852        C853   1.356       .  A
C853        C854   1.399       .  A
C853        H856   1.082       .  S
C854       C1301   1.494       .  S
C854        C855   1.374       .  A
C855        H857   1.081       .  S
N858        N859   1.323       .  A
N858        C862   1.361       .  A
N859        C860   1.341       .  A
C860        C861   1.381       .  A
C860        H863   1.082       .  S
C861        C885   1.491       .  S
C861        C862   1.403       .  A
C862        H864   1.082       .  S
N865        N866   1.319       .  A
N865        C869   1.344       .  A
N865       Cu873   2.062       .  S
N866        C867   1.342       .  A
N866       Cu872   2.055       .  S
C867        C868   1.383       .  A
C867        H870   1.082       .  S
C868       C1543   1.474       .  S
C868        C869   1.384       .  A
C869        H871   1.082       .  S
Cu872       N875   2.056       .  S
Cu873       N883   2.060       .  S
Cu874       N876   2.155       .  S
Cu874       N882   2.153       .  S
N875        N876   1.326       .  A
N875        C879   1.346       .  A
N876        C877   1.356       .  A
C877        C878   1.398       .  A
C877        H880   1.082       .  S
C878       C1248   1.494       .  S
C878        C879   1.375       .  A
C879        H881   1.082       .  S
N882        N883   1.323       .  A
N882        C886   1.361       .  A
N883        C884   1.340       .  A
C884        C885   1.380       .  A
C884        H887   1.082       .  S
C885        C886   1.404       .  A
C886        H888   1.082       .  S
N889        N890   1.319       .  A
N889        C893   1.344       .  A
N889       Cu897   2.069       .  S
N890        C891   1.346       .  A
N890       Cu896   2.079       .  S
C891        C892   1.391       .  A
C891        H894   1.081       .  S
C892       C1463   1.492       .  S
C892        C893   1.388       .  A
C893        H895   1.081       .  S
Cu896       N899   2.080       .  S
Cu897       N907   2.070       .  S
Cu898       N900   2.149       .  S
Cu898       N906   2.147       .  S
N899        N900   1.327       .  A
N899        C903   1.349       .  A
N900        C901   1.355       .  A
C901        C902   1.396       .  A
C901        H904   1.082       .  S
C902       C1306   1.501       .  S
C902        C903   1.381       .  A
C903        H905   1.081       .  S
N906        N907   1.323       .  A
N906        C910   1.361       .  A
N907        C908   1.343       .  A
C908        C909   1.383       .  A
C908        H911   1.082       .  S
C909        C933   1.494       .  S
C909        C910   1.402       .  A
C910        H912   1.082       .  S
N913        N914   1.318       .  A
N913        C917   1.341       .  A
N913       Cu921   2.060       .  S
N914        C915   1.344       .  A
N914       Cu920   2.056       .  S
C915        C916   1.385       .  A
C915        H918   1.082       .  S
C916       C1550   1.477       .  S
C916        C917   1.385       .  A
C917        H919   1.081       .  S
Cu920       N923   2.057       .  S
Cu921       N931   2.058       .  S
Cu922       N924   2.162       .  S
Cu922       N930   2.160       .  S
N923        N924   1.326       .  A
N923        C927   1.346       .  A
N924        C925   1.358       .  A
C925        C926   1.400       .  A
C925        H928   1.082       .  S
C926       C1242   1.500       .  S
C926        C927   1.375       .  A
C927        H929   1.081       .  S
N930        N931   1.323       .  A
N930        C934   1.363       .  A
N931        C932   1.341       .  A
C932        C933   1.379       .  A
C932        H935   1.082       .  S
C933        C934   1.404       .  A
C934        H936   1.082       .  S
N937        N938   1.318       .  A
N937        C941   1.344       .  A
N937       Cu945   2.071       .  S
N938        C939   1.339       .  A
N938       Cu944   2.034       .  S
C939        C940   1.379       .  A
C939        H942   1.082       .  S
C940       C1513   1.473       .  S
C940        C941   1.388       .  A
C941        H943   1.082       .  S
Cu944       N947   2.033       .  S
Cu945       N955   2.070       .  S
Cu946       N948   2.168       .  S
Cu946       N954   2.167       .  S
N947        N948   1.324       .  A
N947        C951   1.343       .  A
N948        C949   1.358       .  A
C949        C950   1.402       .  A
C949        H952   1.082       .  S
C950       C1314   1.493       .  S
C950        C951   1.370       .  A
C951        H953   1.082       .  S
N954        N955   1.324       .  A
N954        C958   1.363       .  A
N955        C956   1.344       .  A
C956        C957   1.382       .  A
C956        H959   1.082       .  S
C957        C981   1.497       .  S
C957        C958   1.405       .  A
C958        H960   1.082       .  S
N961        N962   1.318       .  A
N961        C965   1.345       .  A
N961       Cu969   2.067       .  S
N962        C963   1.340       .  A
N962       Cu968   2.049       .  S
C963        C964   1.384       .  A
C963        H966   1.082       .  S
C964       C1580   1.480       .  S
C964        C965   1.389       .  A
C965        H967   1.081       .  S
Cu968       N971   2.049       .  S
Cu969       N979   2.066       .  S
Cu970       N972   2.171       .  S
Cu970       N978   2.171       .  S
N971        N972   1.325       .  A
N971        C975   1.345       .  A
N972        C973   1.359       .  A
C973        C974   1.403       .  A
C973        H976   1.082       .  S
C974       C1238   1.502       .  S
C974        C975   1.375       .  A
C975        H977   1.081       .  S
N978        N979   1.325       .  A
N978        C982   1.364       .  A
N979        C980   1.343       .  A
C980        C981   1.379       .  A
C980        H983   1.082       .  S
C981        C982   1.406       .  A
C982        H984   1.082       .  S
N985        N986   1.319       .  A
N985        C989   1.342       .  A
N985       Cu993   2.066       .  S
N986        C987   1.345       .  A
N986       Cu992   2.059       .  S
C987        C988   1.386       .  A
C987        H990   1.082       .  S
C988       C1393   1.480       .  S
C988        C989   1.385       .  A
C989        H991   1.082       .  S
Cu992       N995   2.061       .  S
Cu993      N1003   2.065       .  S
Cu994       N996   2.173       .  S
Cu994      N1002   2.171       .  S
N995        N996   1.327       .  A
N995        C999   1.347       .  A
N996        C997   1.359       .  A
C997        C998   1.401       .  A
C997       H1000   1.082       .  S
C998       C1312   1.503       .  S
C998        C999   1.375       .  A
C999       H1001   1.082       .  S
N1002      N1003   1.322       .  A
N1002      C1006   1.367       .  A
N1003      C1004   1.341       .  A
C1004      C1005   1.382       .  A
C1004      H1007   1.082       .  S
C1005      C1029   1.504       .  S
C1005      C1006   1.409       .  A
C1006      H1008   1.082       .  S
N1009      N1010   1.316       .  A
N1009      C1013   1.343       .  A
N1009     Cu1017   2.066       .  S
N1010      C1011   1.342       .  A
N1010     Cu1016   2.042       .  S
C1011      C1012   1.384       .  A
C1011      H1014   1.082       .  S
C1012      C1423   1.481       .  S
C1012      C1013   1.389       .  A
C1013      H1015   1.081       .  S
Cu1016     N1019   2.043       .  S
Cu1017     N1027   2.066       .  S
Cu1018     N1020   2.184       .  S
Cu1018     N1026   2.182       .  S
N1019      N1020   1.327       .  A
N1019      C1023   1.344       .  A
N1020      C1021   1.361       .  A
C1021      C1022   1.405       .  A
C1021      H1024   1.082       .  S
C1022      C1244   1.501       .  S
C1022      C1023   1.371       .  A
C1023      H1025   1.082       .  S
N1026      N1027   1.325       .  A
N1026      C1030   1.368       .  A
N1027      C1028   1.340       .  A
C1028      C1029   1.380       .  A
C1028      H1031   1.082       .  S
C1029      C1030   1.409       .  A
C1030      H1032   1.082       .  S
N1033      N1034   1.318       .  A
N1033      C1037   1.347       .  A
N1033     Cu1041   2.065       .  S
N1034      C1035   1.339       .  A
N1034     Cu1040   2.054       .  S
C1035      C1036   1.385       .  A
C1035      H1038   1.081       .  S
C1036      C1383   1.481       .  S
C1036      C1037   1.387       .  A
C1037      H1039   1.082       .  S
Cu1040     N1043   2.055       .  S
Cu1041     N1051   2.063       .  S
Cu1042     N1044   2.161       .  S
Cu1042     N1050   2.160       .  S
N1043      N1044   1.325       .  A
N1043      C1047   1.346       .  A
N1044      C1045   1.357       .  A
C1045      C1046   1.401       .  A
C1045      H1048   1.082       .  S
C1046      C1304   1.500       .  S
C1046      C1047   1.376       .  A
C1047      H1049   1.081       .  S
N1050      N1051   1.324       .  A
N1050      C1054   1.361       .  A
N1051      C1052   1.341       .  A
C1052      C1053   1.380       .  A
C1052      H1055   1.083       .  S
C1053      C1077   1.492       .  S
C1053      C1054   1.404       .  A
C1054      H1056   1.082       .  S
N1057      N1058   1.317       .  A
N1057      C1061   1.346       .  A
N1057     Cu1065   2.069       .  S
N1058      C1059   1.337       .  A
N1058     Cu1064   2.029       .  S
C1059      C1060   1.378       .  A
C1059      H1062   1.082       .  S
C1060      C1433   1.469       .  S
C1060      C1061   1.387       .  A
C1061      H1063   1.082       .  S
Cu1064     N1067   2.029       .  S
Cu1065     N1075   2.068       .  S
Cu1066     N1068   2.160       .  S
Cu1066     N1074   2.160       .  S
N1067      N1068   1.323       .  A
N1067      C1071   1.342       .  A
N1068      C1069   1.357       .  A
C1069      C1070   1.401       .  A
C1069      H1072   1.082       .  S
C1070      C1226   1.490       .  S
C1070      C1071   1.370       .  A
C1071      H1073   1.082       .  S
N1074      N1075   1.325       .  A
N1074      C1078   1.361       .  A
N1075      C1076   1.342       .  A
C1076      C1077   1.380       .  A
C1076      H1079   1.083       .  S
C1077      C1078   1.404       .  A
C1078      H1080   1.082       .  S
N1081      N1082   1.319       .  A
N1081      C1085   1.343       .  A
N1081     Cu1089   2.061       .  S
N1082      C1083   1.342       .  A
N1082     Cu1088   2.052       .  S
C1083      C1084   1.382       .  A
C1083      H1086   1.082       .  S
C1084      C1490   1.471       .  S
C1084      C1085   1.384       .  A
C1085      H1087   1.082       .  S
Cu1088     N1091   2.052       .  S
Cu1089     N1099   2.060       .  S
Cu1090     N1092   2.168       .  S
Cu1090     N1098   2.167       .  S
N1091      N1092   1.326       .  A
N1091      C1095   1.346       .  A
N1092      C1093   1.359       .  A
C1093      C1094   1.401       .  A
C1093      H1096   1.082       .  S
C1094      C1246   1.499       .  S
C1094      C1095   1.374       .  A
C1095      H1097   1.082       .  S
N1098      N1099   1.323       .  A
N1098      C1102   1.364       .  A
N1099      C1100   1.342       .  A
C1100      C1101   1.379       .  A
C1100      H1103   1.082       .  S
C1101      C1125   1.496       .  S
C1101      C1102   1.406       .  A
C1102      H1104   1.082       .  S
N1105      N1106   1.318       .  A
N1105      C1109   1.344       .  A
N1105     Cu1113   2.072       .  S
N1106      C1107   1.345       .  A
N1106     Cu1112   2.072       .  S
C1107      C1108   1.390       .  A
C1107      H1110   1.081       .  S
C1108      C1573   1.492       .  S
C1108      C1109   1.390       .  A
C1109      H1111   1.081       .  S
Cu1112     N1115   2.074       .  S
Cu1113     N1123   2.072       .  S
Cu1114     N1116   2.157       .  S
Cu1114     N1122   2.156       .  S
N1115      N1116   1.327       .  A
N1115      C1119   1.349       .  A
N1116      C1117   1.357       .  A
C1117      C1118   1.398       .  A
C1117      H1120   1.082       .  S
C1118      C1234   1.500       .  S
C1118      C1119   1.379       .  A
C1119      H1121   1.082       .  S
N1122      N1123   1.324       .  A
N1122      C1126   1.363       .  A
N1123      C1124   1.343       .  A
C1124      C1125   1.382       .  A
C1124      H1127   1.082       .  S
C1125      C1126   1.404       .  A
C1126      H1128   1.082       .  S
N1129      N1130   1.317       .  A
N1129      C1133   1.343       .  A
N1129     Cu1137   2.058       .  S
N1130      C1131   1.341       .  A
N1130     Cu1136   2.052       .  S
C1131      C1132   1.387       .  A
C1131      H1134   1.081       .  S
C1132      C1373   1.482       .  S
C1132      C1133   1.387       .  A
C1133      H1135   1.081       .  S
Cu1136     N1139   2.053       .  S
Cu1137     N1147   2.056       .  S
Cu1138     N1140   2.179       .  S
Cu1138     N1146   2.178       .  S
N1139      N1140   1.326       .  A
N1139      C1143   1.346       .  A
N1140      C1141   1.360       .  A
C1141      C1142   1.403       .  A
C1141      H1144   1.082       .  S
C1142      C1240   1.502       .  S
C1142      C1143   1.374       .  A
C1143      H1145   1.082       .  S
N1146      N1147   1.323       .  A
N1146      C1150   1.365       .  A
N1147      C1148   1.342       .  A
C1148      C1149   1.379       .  A
C1148      H1151   1.082       .  S
C1149      C1173   1.499       .  S
C1149      C1150   1.409       .  A
C1150      H1152   1.082       .  S
N1153      N1154   1.317       .  A
N1153      C1157   1.346       .  A
N1153     Cu1161   2.075       .  S
N1154      C1155   1.340       .  A
N1154     Cu1160   2.042       .  S
C1155      C1156   1.382       .  A
C1155      H1158   1.082       .  S
C1156      C1413   1.479       .  S
C1156      C1157   1.390       .  A
C1157      H1159   1.082       .  S
Cu1160     N1163   2.042       .  S
Cu1161     N1171   2.075       .  S
Cu1162     N1164   2.175       .  S
Cu1162     N1170   2.174       .  S
N1163      N1164   1.325       .  A
N1163      C1167   1.344       .  A
N1164      C1165   1.360       .  A
C1165      C1166   1.404       .  A
C1165      H1168   1.082       .  S
C1166      C1232   1.499       .  S
C1166      C1167   1.372       .  A
C1167      H1169   1.082       .  S
N1170      N1171   1.325       .  A
N1170      C1174   1.364       .  A
N1171      C1172   1.344       .  A
C1172      C1173   1.382       .  A
C1172      H1175   1.082       .  S
C1173      C1174   1.407       .  A
C1174      H1176   1.082       .  S
N1177      N1178   1.318       .  A
N1177      C1181   1.346       .  A
N1177     Cu1185   2.068       .  S
N1178      C1179   1.340       .  A
N1178     Cu1184   2.050       .  S
C1179      C1180   1.385       .  A
C1179      H1182   1.082       .  S
C1180      C1453   1.482       .  S
C1180      C1181   1.389       .  A
C1181      H1183   1.081       .  S
Cu1184     N1187   2.051       .  S
Cu1185     N1195   2.066       .  S
Cu1186     N1188   2.164       .  S
Cu1186     N1194   2.164       .  S
N1187      N1188   1.325       .  A
N1187      C1191   1.346       .  A
N1188      C1189   1.358       .  A
C1189      C1190   1.401       .  A
C1189      H1192   1.082       .  S
C1190      C1228   1.498       .  S
C1190      C1191   1.375       .  A
C1191      H1193   1.082       .  S
N1194      N1195   1.325       .  A
N1194      C1198   1.362       .  A
N1195      C1196   1.343       .  A
C1196      C1197   1.379       .  A
C1196      H1199   1.082       .  S
C1197      C1221   1.493       .  S
C1197      C1198   1.404       .  A
C1198      H1200   1.082       .  S
N1201      N1202   1.319       .  A
N1201      C1205   1.345       .  A
N1201     Cu1209   2.068       .  S
N1202      C1203   1.342       .  A
N1202     Cu1208   2.063       .  S
C1203      C1204   1.386       .  A
C1203      H1206   1.082       .  S
C1204      C1530   1.483       .  S
C1204      C1205   1.388       .  A
C1205      H1207   1.081       .  S
Cu1208     N1211   2.063       .  S
Cu1209     N1219   2.067       .  S
Cu1210     N1212   2.158       .  S
Cu1210     N1218   2.158       .  S
N1211      N1212   1.326       .  A
N1211      C1215   1.347       .  A
N1212      C1213   1.357       .  A
C1213      C1214   1.399       .  A
C1213      H1216   1.082       .  S
C1214      C1236   1.500       .  S
C1214      C1215   1.378       .  A
C1215      H1217   1.081       .  S
N1218      N1219   1.324       .  A
N1218      C1222   1.361       .  A
N1219      C1220   1.343       .  A
C1220      C1221   1.381       .  A
C1220      H1223   1.082       .  S
C1221      C1222   1.404       .  A
C1222      H1224   1.082       .  S
C1225      C1226   1.428       .  A
C1225      C1230   1.424       .  A
C1226      C1227   1.428       .  A
C1227      C1228   1.422       .  A
C1228      C1229   1.427       .  A
C1229      C1230   1.431       .  A
C1230      C1286   1.491       .  S
C1231      C1232   1.425       .  A
C1231      C1236   1.426       .  A
C1232      C1233   1.429       .  A
C1233      C1234   1.427       .  A
C1234      C1235   1.429       .  A
C1235      C1236   1.429       .  A
C1237      C1238   1.428       .  A
C1237      C1242   1.424       .  A
C1238      C1239   1.429       .  A
C1239      C1240   1.425       .  A
C1240      C1241   1.425       .  A
C1241      C1242   1.428       .  A
C1243      C1244   1.422       .  A
C1243      C1248   1.424       .  A
C1244      C1245   1.430       .  A
C1245      C1246   1.424       .  A
C1246      C1247   1.422       .  A
C1247      C1248   1.423       .  A
N1249      N1250   1.317       .  A
N1249      C1253   1.344       .  A
N1249     Cu1257   2.067       .  S
N1250      C1251   1.340       .  A
N1250     Cu1256   2.045       .  S
C1251      C1252   1.385       .  A
C1251      H1254   1.082       .  S
C1252      C1500   1.482       .  S
C1252      C1253   1.390       .  A
C1253      H1255   1.081       .  S
Cu1256     N1259   2.046       .  S
Cu1257     N1267   2.068       .  S
Cu1258     N1260   2.153       .  S
Cu1258     N1266   2.152       .  S
N1259      N1260   1.325       .  A
N1259      C1263   1.344       .  A
N1260      C1261   1.356       .  A
C1261      C1262   1.399       .  A
C1261      H1264   1.082       .  S
C1262      C1299   1.494       .  S
C1262      C1263   1.373       .  A
C1263      H1265   1.081       .  S
N1266      N1267   1.324       .  A
N1266      C1270   1.362       .  A
N1267      C1268   1.341       .  A
C1268      C1269   1.379       .  A
C1268      H1271   1.083       .  S
C1269      C1293   1.491       .  S
C1269      C1270   1.401       .  A
C1270      H1272   1.082       .  S
N1273      N1274   1.320       .  A
N1273      C1277   1.341       .  A
N1273     Cu1281   2.063       .  S
N1274      C1275   1.343       .  A
N1274     Cu1280   2.050       .  S
C1275      C1276   1.381       .  A
C1275      H1278   1.082       .  S
C1276      C1590   1.468       .  S
C1276      C1277   1.382       .  A
C1277      H1279   1.082       .  S
Cu1280     N1283   2.049       .  S
Cu1281     N1291   2.061       .  S
Cu1282     N1284   2.148       .  S
Cu1282     N1290   2.146       .  S
N1283      N1284   1.325       .  A
N1283      C1287   1.344       .  A
N1284      C1285   1.355       .  A
C1285      C1286   1.397       .  A
C1285      H1288   1.082       .  S
C1286      C1287   1.374       .  A
C1287      H1289   1.082       .  S
N1290      N1291   1.322       .  A
N1290      C1294   1.361       .  A
N1291      C1292   1.342       .  A
C1292      C1293   1.382       .  A
C1292      H1295   1.083       .  S
C1293      C1294   1.402       .  A
C1294      H1296   1.082       .  S
C1297      C1352   1.495       .  S
C1297      C1298   1.428       .  A
C1297      C1302   1.426       .  A
C1298      C1299   1.424       .  A
C1299      C1300   1.425       .  A
C1300      C1301   1.428       .  A
C1301      C1302   1.428       .  A
C1303      C1304   1.426       .  A
C1303      C1308   1.429       .  A
C1304      C1305   1.426       .  A
C1305      C1306   1.424       .  A
C1306      C1307   1.427       .  A
C1307      C1308   1.431       .  A
C1309      C1310   1.426       .  A
C1309      C1314   1.423       .  A
C1310      C1311   1.428       .  A
C1311      C1312   1.423       .  A
C1312      C1313   1.424       .  A
C1313      C1314   1.424       .  A
N1315      N1316   1.319       .  A
N1315      C1319   1.342       .  A
N1315     Cu1323   2.054       .  S
N1316      C1317   1.347       .  A
N1316     Cu1322   2.073       .  S
C1317      C1318   1.388       .  A
C1317      H1320   1.082       .  S
C1318      C1403   1.478       .  S
C1318      C1319   1.382       .  A
C1319      H1321   1.082       .  S
Cu1322     N1325   2.075       .  S
Cu1323     N1333   2.051       .  S
Cu1324     N1326   2.187       .  S
Cu1324     N1332   2.184       .  S
N1325      N1326   1.328       .  A
N1325      C1329   1.350       .  A
N1326      C1327   1.362       .  A
C1327      C1328   1.404       .  A
C1327      H1330   1.082       .  S
C1328      C1364   1.511       .  S
C1328      C1329   1.378       .  A
C1329      H1331   1.082       .  S
N1332      N1333   1.322       .  A
N1332      C1336   1.368       .  A
N1333      C1334   1.340       .  A
C1334      C1335   1.378       .  A
C1334      H1337   1.082       .  S
C1335      C1359   1.503       .  S
C1335      C1336   1.411       .  A
C1336      H1338   1.082       .  S
N1339      N1340   1.316       .  A
N1339      C1343   1.342       .  A
N1339     Cu1347   2.071       .  S
N1340      C1341   1.345       .  A
N1340     Cu1346   2.048       .  S
C1341      C1342   1.387       .  A
C1341      H1344   1.081       .  S
C1342      C1443   1.486       .  S
C1342      C1343   1.390       .  A
C1343      H1345   1.081       .  S
Cu1346     N1349   2.050       .  S
Cu1347     N1357   2.071       .  S
Cu1348     N1350   2.171       .  S
Cu1348     N1356   2.170       .  S
N1349      N1350   1.327       .  A
N1349      C1353   1.343       .  A
N1350      C1351   1.359       .  A
C1351      C1352   1.401       .  A
C1351      H1354   1.082       .  S
C1352      C1353   1.372       .  A
C1353      H1355   1.082       .  S
N1356      N1357   1.323       .  A
N1356      C1360   1.366       .  A
N1357      C1358   1.342       .  A
C1358      C1359   1.383       .  A
C1358      H1361   1.082       .  S
C1359      C1360   1.408       .  A
C1360      H1362   1.082       .  S
C1363      C1364   1.427       .  A
C1363      C1368   1.432       .  A
C1364      C1365   1.423       .  A
C1365      C1366   1.427       .  A
C1366      C1367   1.425       .  A
C1367      C1368   1.429       .  A
C1369      C1370   1.405       .  A
C1369      C1374   1.399       .  A
C1369      F1376   1.358       .  S
C1370      C1371   1.404       .  A
C1371      C1372   1.394       .  A
C1371      F1378   1.358       .  S
C1372      C1373   1.409       .  A
C1372      F1377   1.357       .  S
C1373      C1374   1.409       .  A
C1374      F1375   1.357       .  S
C1379      C1380   1.406       .  A
C1379      C1384   1.403       .  A
C1379      F1386   1.358       .  S
C1380      C1381   1.401       .  A
C1381      C1382   1.392       .  A
C1381      F1388   1.358       .  S
C1382      C1383   1.408       .  A
C1382      F1387   1.357       .  S
C1383      C1384   1.409       .  A
C1384      F1385   1.358       .  S
C1389      C1390   1.412       .  A
C1389      C1394   1.400   1_565  A
C1389      F1396   1.358       .  S
C1390      C1391   1.409       .  A
C1391      C1392   1.396   1_565  A
C1391      F1398   1.358       .  S
C1392      C1393   1.406       .  A
C1392      F1397   1.358       .  S
C1393      C1394   1.406       .  A
C1394      F1395   1.358       .  S
C1399      C1400   1.411       .  A
C1399      C1404   1.398       .  A
C1399      F1406   1.358       .  S
C1400      C1401   1.408       .  A
C1401      C1402   1.399   1_565  A
C1401      F1408   1.358       .  S
C1402      C1403   1.407       .  A
C1402      F1407   1.358       .  S
C1403      C1404   1.403   1_545  A
C1404      F1405   1.358       .  S
C1409      C1410   1.408       .  A
C1409      C1414   1.398       .  A
C1409      F1416   1.358       .  S
C1410      C1411   1.408       .  A
C1411      C1412   1.398       .  A
C1411      F1418   1.358       .  S
C1412      C1413   1.407       .  A
C1412      F1417   1.358       .  S
C1413      C1414   1.406       .  A
C1414      F1415   1.357       .  S
C1419      C1420   1.408       .  A
C1419      C1424   1.399   1_565  A
C1419      F1426   1.358       .  S
C1420      C1421   1.406       .  A
C1421      C1422   1.396   1_565  A
C1421      F1428   1.358       .  S
C1422      C1423   1.407       .  A
C1422      F1427   1.357       .  S
C1423      C1424   1.408       .  A
C1424      F1425   1.358       .  S
C1429      C1430   1.409       .  A
C1429      C1434   1.396       .  A
C1429      F1436   1.358       .  S
C1430      C1431   1.406       .  A
C1431      C1432   1.394       .  A
C1431      F1438   1.358       .  S
C1432      C1433   1.405       .  A
C1432      F1437   1.358       .  S
C1433      C1434   1.403       .  A
C1434      F1435   1.358       .  S
C1439      C1440   1.406   1_545  A
C1439      C1444   1.393       .  A
C1439      F1446   1.358       .  S
C1440      C1441   1.407       .  A
C1441      C1442   1.402   1_565  A
C1441      F1448   1.358       .  S
C1442      C1443   1.412       .  A
C1442      F1447   1.357       .  S
C1443      C1444   1.407       .  A
C1444      F1445   1.357       .  S
C1449      C1450   1.408       .  A
C1449      C1454   1.396       .  A
C1449      F1456   1.358       .  S
C1450      C1451   1.410       .  A
C1451      C1452   1.400       .  A
C1451      F1458   1.358       .  S
C1452      C1453   1.408       .  A
C1452      F1457   1.357       .  S
C1453      C1454   1.407       .  A
C1454      F1455   1.358       .  S
C1459      C1460   1.408       .  A
C1459      C1464   1.401       .  A
C1459      F1466   1.358       .  S
C1460      C1461   1.412       .  A
C1461      C1462   1.400       .  A
C1461      F1468   1.358       .  S
C1462      C1463   1.408       .  A
C1462      F1467   1.357       .  S
C1463      C1464   1.411       .  A
C1464      F1465   1.356       .  S
C1469      C1470   1.410       .  A
C1469      C1474   1.401   1_565  A
C1469      F1476   1.358       .  S
C1470      C1471   1.411       .  A
C1471      C1472   1.396       .  A
C1471      F1478   1.358       .  S
C1472      C1473   1.405   1_565  A
C1472      F1477   1.358       .  S
C1473      C1474   1.407       .  A
C1474      F1475   1.358       .  S
C1479      C1480   1.410   1_545  A
C1479      C1484   1.399       .  A
C1479      F1486   1.358   1_545  S
C1480      C1481   1.409   1_565  A
C1481      C1482   1.396       .  A
C1481      F1488   1.358       .  S
C1482      C1483   1.407       .  A
C1482      F1487   1.357       .  S
C1483      C1484   1.409       .  A
C1484      F1485   1.357       .  S
C1489      C1490   1.403       .  A
C1489      C1494   1.396       .  A
C1489      F1496   1.358       .  S
C1490      C1491   1.404       .  A
C1491      C1492   1.396       .  A
C1491      F1498   1.358       .  S
C1492      C1493   1.408       .  A
C1492      F1497   1.358       .  S
C1493      C1494   1.408       .  A
C1494      F1495   1.358       .  S
C1499      C1500   1.408       .  A
C1499      C1504   1.397       .  A
C1499      F1506   1.358       .  S
C1500      C1501   1.407       .  A
C1501      C1502   1.395       .  A
C1501      F1508   1.356       .  S
C1502      C1503   1.409       .  A
C1502      F1507   1.358       .  S
C1503      C1504   1.408       .  A
C1504      F1505   1.358       .  S
C1509      C1510   1.411       .  A
C1509      C1514   1.394       .  A
C1509      F1516   1.358       .  S
C1510      C1511   1.409       .  A
C1511      C1512   1.397       .  A
C1511      F1518   1.358       .  S
C1512      C1513   1.406       .  A
C1512      F1517   1.358       .  S
C1513      C1514   1.403       .  A
C1514      F1515   1.358       .  S
C1519      C1520   1.402       .  A
C1519      C1524   1.395       .  A
C1519      F1526   1.359       .  S
C1520      C1521   1.403       .  A
C1521      C1522   1.397       .  A
C1521      F1528   1.358       .  S
C1522      C1523   1.406       .  A
C1522      F1527   1.357       .  S
C1523      C1524   1.409       .  A
C1524      F1525   1.358       .  S
C1529      C1530   1.409       .  A
C1529      C1534   1.400       .  A
C1529      F1536   1.357       .  S
C1530      C1531   1.406       .  A
C1531      C1532   1.396       .  A
C1531      F1538   1.358       .  S
C1532      C1533   1.409       .  A
C1532      F1537   1.358       .  S
C1533      C1534   1.410       .  A
C1534      F1535   1.358       .  S
C1539      C1540   1.407   1_545  A
C1539      C1544   1.396       .  A
C1539      F1546   1.358       .  S
C1540      C1541   1.409       .  A
C1541      C1542   1.398   1_565  A
C1541      F1548   1.358       .  S
C1542      C1543   1.405       .  A
C1542      F1547   1.358       .  S
C1543      C1544   1.405       .  A
C1544      F1545   1.358       .  S
C1549      C1550   1.406       .  A
C1549      C1554   1.399       .  A
C1549      F1556   1.358       .  S
C1550      C1551   1.405       .  A
C1551      C1552   1.394       .  A
C1551      F1558   1.358       .  S
C1552      C1553   1.410       .  A
C1552      F1557   1.358       .  S
C1553      C1554   1.410       .  A
C1554      F1555   1.358       .  S
C1559      C1560   1.410       .  A
C1559      C1564   1.397       .  A
C1559      F1566   1.355   1_565  S
C1560      C1561   1.410       .  A
C1561      C1562   1.398       .  A
C1561      F1568   1.358       .  S
C1562      C1563   1.410       .  A
C1562      F1567   1.358       .  S
C1563      C1564   1.408       .  A
C1564      F1565   1.358       .  S
C1569      C1570   1.410       .  A
C1569      C1574   1.401       .  A
C1569      F1576   1.358       .  S
C1570      C1571   1.410       .  A
C1571      C1572   1.399       .  A
C1571      F1578   1.358       .  S
C1572      C1573   1.410       .  A
C1572      F1577   1.356       .  S
C1573      C1574   1.409       .  A
C1574      F1575   1.357       .  S
C1579      C1580   1.407       .  A
C1579      C1584   1.397       .  A
C1579      F1586   1.357       .  S
C1580      C1581   1.407       .  A
C1581      C1582   1.397       .  A
C1581      F1588   1.358       .  S
C1582      C1583   1.408       .  A
C1582      F1587   1.358       .  S
C1583      C1584   1.409       .  A
C1584      F1585   1.358       .  S
C1589      C1590   1.403       .  A
C1589      C1594   1.399       .  A
C1589      F1596   1.358       .  S
C1590      C1591   1.402       .  A
C1591      C1592   1.393       .  A
C1591      F1598   1.358       .  S
C1592      C1593   1.410       .  A
C1592      F1597   1.358       .  S
C1593      C1594   1.410       .  A
C1594      F1595   1.358       .  S
C1599      C1600   1.406       .  A
C1599      C1604   1.400       .  A
C1599      F1606   1.358       .  S
C1600      C1601   1.410       .  A
C1601      C1602   1.395       .  A
C1601      F1608   1.357       .  S
C1602      C1603   1.403       .  A
C1602      F1607   1.358       .  S
C1603      C1604   1.407       .  A
C1604      F1605   1.358       .  S
C1609      C1610   1.406       .  A
C1609      C1614   1.398       .  A
C1609      F1616   1.358       .  S
C1610      C1611   1.408       .  A
C1611      C1612   1.401       .  A
C1611      F1618   1.357       .  S
C1612      C1613   1.409       .  A
C1612      F1617   1.358       .  S
C1613      C1614   1.408       .  A
C1614      F1615   1.358       .  S
C1619      C1620   1.407       .  A
C1619      C1624   1.399       .  A
C1619      F1626   1.358       .  S
C1620      C1621   1.406       .  A
C1621      C1622   1.396       .  A
C1621      F1628   1.357       .  S
C1622      C1623   1.409       .  A
C1622      F1627   1.358       .  S
C1623      C1624   1.409       .  A
C1624      F1625   1.358       .  S
C1629      C1630   1.408       .  A
C1629      C1634   1.398       .  A
C1629      F1636   1.358       .  S
C1630      C1631   1.408       .  A
C1631      C1632   1.397       .  A
C1631      F1638   1.358       .  S
C1632      C1633   1.406       .  A
C1632      F1637   1.358       .  S
C1633      C1634   1.404       .  A
C1634      F1635   1.358       .  S
C1639      C1640   1.410       .  A
C1639      C1644   1.403       .  A
C1639      F1646   1.358       .  S
C1640      C1641   1.408       .  A
C1641      C1642   1.398       .  A
C1641      F1648   1.358       .  S
C1642      C1643   1.407       .  A
C1642      F1647   1.357       .  S
C1643      C1644   1.407       .  A
C1644      F1645   1.358       .  S
C1649      C1650   1.415       .  A
C1649      C1654   1.398       .  A
C1649      F1656   1.354       .  S
C1650      C1651   1.414       .  A
C1651      C1652   1.400       .  A
C1651      F1658   1.355       .  S
C1652      C1653   1.407       .  A
C1652      F1657   1.358       .  S
C1653      C1654   1.406       .  A
C1654      F1655   1.358       .  S
C1659      C1660   1.411       .  A
C1659      C1664   1.399       .  A
C1659      F1666   1.356       .  S
C1660      C1661   1.410       .  A
C1661      C1662   1.399       .  A
C1661      F1668   1.357       .  S
C1662      C1663   1.405       .  A
C1662      F1667   1.358       .  S
C1663      C1664   1.406       .  A
C1664      F1665   1.358       .  S
C1669      C1670   1.409       .  A
C1669      C1674   1.395       .  A
C1669      F1676   1.358       .  S
C1670      C1671   1.409       .  A
C1671      C1672   1.403       .  A
C1671      F1678   1.358       .  S
C1672      C1673   1.409       .  A
C1672      F1677   1.357       .  S
C1673      C1674   1.404       .  A
C1674      F1675   1.358       .  S
C1679      C1680   1.405       .  A
C1679      C1684   1.398       .  A
C1679      F1686   1.358       .  S
C1680      C1681   1.405       .  A
C1681      C1682   1.398       .  A
C1681      F1688   1.358       .  S
C1682      C1683   1.409       .  A
C1682      F1687   1.358       .  S
C1683      C1684   1.408       .  A
C1684      F1685   1.358       .  S
C1689      C1690   1.405       .  A
C1689      C1694   1.395       .  A
C1689      F1696   1.357       .  S
C1690      C1691   1.405       .  A
C1691      C1692   1.391       .  A
C1691      F1698   1.358       .  S
C1692      C1693   1.407       .  A
C1692      F1697   1.358       .  S
C1693      C1694   1.406       .  A
C1694      F1695   1.358       .  S
C1699      C1700   1.407       .  A
C1699      C1704   1.396       .  A
C1699      F1706   1.358       .  S
C1700      C1701   1.408       .  A
C1701      C1702   1.396       .  A
C1701      F1708   1.358       .  S
C1702      C1703   1.406       .  A
C1702      F1707   1.358       .  S
C1703      C1704   1.406       .  A
C1704      F1705   1.357       .  S
C1709      C1710   1.409       .  A
C1709      C1714   1.394       .  A
C1709      F1716   1.358       .  S
C1710      C1711   1.407       .  A
C1711      C1712   1.397       .  A
C1711      F1718   1.358       .  S
C1712      C1713   1.407       .  A
C1712      F1717   1.357       .  S
C1713      C1714   1.404       .  A
C1714      F1715   1.358       .  S
C1719      C1720   1.405       .  A
C1719      C1724   1.398       .  A
C1719      F1726   1.358       .  S
C1720      C1721   1.406       .  A
C1721      C1722   1.397       .  A
C1721      F1728   1.358       .  S
C1722      C1723   1.408       .  A
C1722      F1727   1.358       .  S
C1723      C1724   1.409       .  A
C1724      F1725   1.358       .  S
C1729      C1730   1.404       .  A
C1729      C1734   1.396       .  A
C1729      F1736   1.358       .  S
C1730      C1731   1.405       .  A
C1731      C1732   1.397       .  A
C1731      F1738   1.358       .  S
C1732      C1733   1.409       .  A
C1732      F1737   1.357       .  S
C1733      C1734   1.410       .  A
C1734      F1735   1.357       .  S
C1739      C1740   1.410       .  A
C1739      C1744   1.398       .  A
C1739      F1746   1.357       .  S
C1740      C1741   1.411       .  A
C1741      C1742   1.395       .  A
C1741      F1748   1.356       .  S
C1742      C1743   1.405       .  A
C1742      F1747   1.358       .  S
C1743      C1744   1.407       .  A
C1744      F1745   1.358       .  S
C1749      C1750   1.403       .  A
C1749      C1754   1.395       .  A
C1749      F1756   1.358       .  S
C1750      C1751   1.403       .  A
C1751      C1752   1.400       .  A
C1751      F1758   1.358       .  S
C1752      C1753   1.411       .  A
C1752      F1757   1.357       .  S
C1753      C1754   1.409       .  A
C1754      F1755   1.357       .  S
C1759      C1760   1.410       .  A
C1759      C1764   1.396       .  A
C1759      F1766   1.358       .  S
C1760      C1761   1.410       .  A
C1761      C1762   1.398       .  A
C1761      F1768   1.358       .  S
C1762      C1763   1.407       .  A
C1762      F1767   1.357       .  S
C1763      C1764   1.406       .  A
C1764      F1765   1.358       .  S
C1769      C1770   1.405       .  A
C1769      C1774   1.399       .  A
C1769      F1776   1.358       .  S
C1770      C1771   1.403       .  A
C1771      C1772   1.394       .  A
C1771      F1778   1.358       .  S
C1772      C1773   1.412       .  A
C1772      F1777   1.358       .  S
C1773      C1774   1.410       .  A
C1774      F1775   1.357       .  S
C1779      C1780   1.409       .  A
C1779      C1784   1.396       .  A
C1779      F1786   1.358       .  S
C1780      C1781   1.408       .  A
C1781      C1782   1.397       .  A
C1781      F1788   1.358       .  S
C1782      C1783   1.407       .  A
C1782      F1787   1.357       .  S
C1783      C1784   1.406       .  A
C1784      F1785   1.358       .  S
C1789      C1790   1.405       .  A
C1789      C1794   1.400       .  A
C1789      F1796   1.358       .  S
C1790      C1791   1.404       .  A
C1791      C1792   1.396       .  A
C1791      F1798   1.358       .  S
C1792      C1793   1.413       .  A
C1792      F1797   1.355       .  S
C1793      C1794   1.414       .  A
C1794      F1795   1.356       .  S
C1799      C1800   1.405       .  A
C1799      C1804   1.402       .  A
C1799      F1806   1.358       .  S
C1800      C1801   1.405       .  A
C1801      C1802   1.395       .  A
C1801      F1808   1.358       .  S
C1802      C1803   1.411       .  A
C1802      F1807   1.356       .  S
C1803      C1804   1.413       .  A
C1804      F1805   1.357       .  S
C1809      C1810   1.404       .  A
C1809      C1814   1.397       .  A
C1809      F1816   1.358       .  S
C1810      C1811   1.404       .  A
C1811      C1812   1.402       .  A
C1811      F1818   1.358   1_545  S
C1812      C1813   1.410       .  A
C1812      F1817   1.357   1_545  S
C1813      C1814   1.409       .  A
C1814      F1815   1.357       .  S
C1819      C1820   1.407       .  A
C1819      C1824   1.402       .  A
C1819      F1826   1.358       .  S
C1820      C1821   1.405       .  A
C1821      C1822   1.397       .  A
C1821      F1828   1.358   1_545  S
C1822      C1823   1.413       .  A
C1822      F1827   1.355   1_545  S
C1823      C1824   1.414       .  A
C1824      F1825   1.356       .  S
C1829      C1830   1.409       .  A
C1829      C1834   1.396       .  A
C1829      F1836   1.358       .  S
C1830      C1831   1.411   1_545  A
C1831      C1832   1.402       .  A
C1831      F1838   1.358       .  S
C1832      C1833   1.409   1_565  A
C1832      F1837   1.357       .  S
C1833      C1834   1.407       .  A
C1834      F1835   1.358       .  S
C1839      C1840   1.407       .  A
C1839      C1844   1.398       .  A
C1839      F1846   1.358   1_545  S
C1840      C1841   1.408       .  A
C1841      C1842   1.394       .  A
C1841      F1848   1.358       .  S
C1842      C1843   1.404       .  A
C1842      F1847   1.358       .  S
C1843      C1844   1.407       .  A
C1844      F1845   1.357   1_545  S
