geometry optimzed in LAMMPS
_audit_creation_date              2020-11-30 
_audit_creation_method            'lammps2cif' 
_symmetry_space_group_name_H-M    'P1' 
_symmetry_Int_Tables_number       1 
_symmetry_cell_setting            triclinic 
loop_ 
_symmetry_equiv_pos_as_xyz 
  x,y,z 
_cell_length_a                    28.26691425 
_cell_length_b                    32.10117279588831 
_cell_length_c                    30.509821817927367 
_cell_angle_alpha                 90.66964686490024 
_cell_angle_beta                  90.19134147057954 
_cell_angle_gamma                 89.77847382071369 
loop_ 
_atom_site_label 
_atom_site_type_symbol 
_atom_site_fract_x 
_atom_site_fract_y 
_atom_site_fract_z 
_atom_site_charge 
C1          C  0.39060198  0.40018632  0.08909851     0.42800
N2          N  0.38327996  0.45746153  0.05397430     0.01700
C3          C  0.17147311  0.57050150  0.06066305    -0.06200
H4          H  0.14026120  0.42856445  0.04658228     0.07200
C5          C  0.24654356  0.42536598  0.88909859    -0.06500
Co6        Co  0.29514366  0.50347217  0.07983796     0.74200
N7          N  0.20944630  0.45712043  0.04791062    -0.25700
Co8        Co  0.21042210  0.50021657  0.99662072     0.74100
C9          C  0.19933798  0.40934687  0.89548739     0.42900
N10         N  0.35674701  0.45293656  0.92652370     0.01300
N11         N  0.21518245  0.45408008  0.94671379     0.01400
N12         N  0.23104510  0.57317533  0.10967881    -0.46600
H13         H  0.32441645  0.41424103  0.13026210     0.07200
N14         N  0.24313519  0.45776811  0.07813379     0.01700
N15         N  0.21416336  0.54412003  0.94612927     0.01400
C16         C  0.19810798  0.58904664  0.89642303     0.43000
N17         N  0.38895390  0.45475067  0.95777311    -0.25200
C18         C  0.34596546  0.58687755  0.10057446    -0.06100
N19         N  0.40909240  0.42301515  0.05655701    -0.46300
N20         N  0.18037490  0.56968433  0.93204939    -0.46500
C21         C  0.38451769  0.61023714  0.08116982     0.42800
N22         N  0.24148734  0.54795235  0.07660033     0.01700
N23         N  0.38769419  0.54575051  0.95543570    -0.25200
N24         N  0.34802467  0.45810465  0.08212302    -0.25700
N25         N  0.35515325  0.54539822  0.92449117     0.01300
H26         H  0.44205340  0.58982970  0.97315323     0.07200
H27         H  0.26732158  0.57552725  0.86027321     0.07300
N28         N  0.20742367  0.54585463  0.04686499    -0.25700
N29         N  0.25266888  0.45346484  0.92099593    -0.25300
N30         N  0.38146767  0.54946157  0.05136760     0.01700
C31         C  0.19128718  0.41623767  0.10413816     0.43100
C32         C  0.41627942  0.42062486  0.95523241    -0.06600
N33         N  0.25117909  0.54365058  0.91979297    -0.25300
H34         H  0.26934047  0.42158459  0.86090281     0.07200
N35         N  0.23335777  0.43415535  0.11199305    -0.46600
H36         H  0.44423612  0.41246979  0.97785350     0.07200
C37         C  0.39274737  0.60242331  0.91480702     0.42900
C38         C  0.35027905  0.42356301  0.10632220    -0.06100
Co39       Co  0.38686612  0.50183160  0.00484871     0.73800
N40         N  0.35915164  0.41777048  0.90337823    -0.46300
C41         C  0.18794329  0.58939053  0.10211809     0.43200
N42         N  0.40484019  0.58514406  0.05088603    -0.46300
Co43       Co  0.30418776  0.49881320  0.92233210     0.73900
C44         C  0.24469566  0.57164071  0.88844304    -0.06600
C45         C  0.17456621  0.43212202  0.06193980    -0.06200
N46         N  0.34616501  0.55004973  0.07948922    -0.25700
N47         N  0.18116925  0.42932777  0.93121393    -0.46500
H48         H  0.13680545  0.57216980  0.04567226     0.07200
C49         C  0.41411644  0.57998289  0.95113921    -0.06600
Cl50       Cl  0.29894041  0.50101782  0.00094092    -0.49600
C51         C  0.39616905  0.39595148  0.91944102     0.43000
H52         H  0.31922782  0.59750343  0.12335572     0.07200
N53         N  0.35618976  0.57924173  0.90002676    -0.46300
C54         C  0.81356880  0.41247719  0.10679589     0.42800
N55         N  0.79565365  0.45775756  0.05805971     0.01700
C56         C  0.59811810  0.58682728  0.06014103    -0.06200
H57         H  0.56566822  0.41950257  0.04221748     0.07200
C58         C  0.65362265  0.42118801  0.90860599    -0.06500
Co59       Co  0.70985512  0.50610541  0.08725889     0.74200
N60         N  0.62254884  0.46161509  0.05795872    -0.25700
Co61       Co  0.62205569  0.50524640  0.00884087     0.74100
C62         C  0.61548867  0.39817651  0.92909844     0.42900
N63         N  0.76086093  0.45617091  0.92922791     0.01300
N64         N  0.62319620  0.45755852  0.96156961     0.01400
N65         N  0.65880474  0.58916554  0.10848944    -0.46600
H66         H  0.74790648  0.42831414  0.14741108     0.07200
N67         N  0.65647008  0.46108178  0.08760740     0.01700
N68         N  0.62397487  0.54980078  0.96010239     0.01400
C69         C  0.61791303  0.60878364  0.92815778     0.43000
N70         N  0.79640993  0.45694865  0.95743898    -0.25200
C71         C  0.77585998  0.57706206  0.11706810    -0.06100
N72         N  0.82936068  0.43123162  0.07008321    -0.46300
N73         N  0.59966094  0.58515615  0.96008952    -0.46500
C74         C  0.82289966  0.59135004  0.10555812     0.42800
N75         N  0.65895271  0.55379393  0.08545942     0.01700
N76         N  0.79819972  0.54543246  0.95703573    -0.25200
N77         N  0.76073622  0.45944358  0.08673079    -0.25700
N78         N  0.76280459  0.54641359  0.92863045     0.01300
H79         H  0.86825416  0.57226363  0.95585016     0.07200
H80         H  0.68165417  0.59430471  0.88397932     0.07300
N81         N  0.62457178  0.55231472  0.05617905    -0.25700
N82         N  0.65639813  0.45704959  0.93132237    -0.25300
N83         N  0.79901549  0.54735512  0.05695612     0.01700
C84         C  0.61689067  0.40525927  0.09864315     0.43100
C85         C  0.83137952  0.43262687  0.94142456    -0.06600
N86         N  0.65789014  0.54910584  0.93059943    -0.25300
H87         H  0.67823021  0.41080872  0.88370722     0.07200
N88         N  0.65507663  0.42722052  0.11207320    -0.46600
H89         H  0.86694035  0.43085141  0.95447828     0.07200
C90         C  0.81466112  0.58714320  0.90104531     0.42900
C91         C  0.76842310  0.43134340  0.11775408    -0.06100
Co92       Co  0.79819164  0.50178751  0.00762988     0.73800
N93         N  0.76938859  0.43200496  0.89489034    -0.46300
C94         C  0.62110818  0.61145330  0.09437702     0.43200
N95         N  0.83572736  0.57067651  0.06862208    -0.46300
Co96       Co  0.70895830  0.50223167  0.92919956     0.73900
C97         C  0.65630713  0.58477902  0.90827712    -0.06600
C98         C  0.59493280  0.42833324  0.06319523    -0.06200
N99         N  0.76435079  0.54943072  0.08584445    -0.25700
N100        N  0.59848406  0.42248110  0.96191466    -0.46500
H101        H  0.56861137  0.59510266  0.03933944     0.07200
C102        C  0.83310720  0.56982665  0.94196758    -0.06600
Cl103      Cl  0.70994895  0.50385764  0.00823482    -0.49600
C104        C  0.81275227  0.41551909  0.90014110     0.43000
H105        H  0.75658585  0.58210944  0.14725521     0.07200
N106        N  0.77152376  0.57053873  0.89489057    -0.46300
C107        C  0.39838929  0.10744521  0.10000277     0.42800
N108        N  0.43813898  0.05076871  0.10624218     0.01700
C109        C  0.42757867  0.93070192  0.29543214    -0.06200
H110        H  0.43425966  0.06970760  0.33498131     0.07200
C111        C  0.60981280  0.08149490  0.24051877    -0.06500
Co112      Co  0.40888494  0.00360959  0.18527957     0.74200
N113        N  0.43888851  0.04605380  0.26834448    -0.25700
Co114      Co  0.49593407  0.00323201  0.26623522     0.74100
C115        C  0.59919778  0.09659479  0.28429960     0.42900
N116        N  0.57512820  0.05492333  0.13512790     0.01300
N117        N  0.54795020  0.05025935  0.26565043     0.01400
N118        N  0.37446575  0.93364309  0.24033477    -0.46600
H119        H  0.35287759  0.09236330  0.15998110     0.07200
N120        N  0.40851307  0.04740203  0.23533706     0.01700
N121        N  0.55283202  0.96024413  0.26245578     0.01400
C122        C  0.61251225  0.92158484  0.27995733     0.43000
N123        N  0.54200610  0.05412826  0.10465953    -0.25200
C124        C  0.38329713  0.92510839  0.13233788    -0.06100
N125        N  0.43452389  0.08512827  0.08282922    -0.46300
N126        N  0.57008217  0.93639720  0.29426201    -0.46500
C127        C  0.40280900  0.90233482  0.09518407     0.42800
N128        N  0.41110804  0.95767244  0.23256448     0.01700
N129        N  0.54589825  0.96215900  0.10246538    -0.25200
N130        N  0.40720483  0.04974576  0.13838054    -0.25700
N131        N  0.57916231  0.96259923  0.13281529     0.01300
H132        H  0.52613553  0.91676735  0.05309223     0.07200
H133        H  0.65234265  0.93881773  0.21765338     0.07300
N134        N  0.44299041  0.95708132  0.26439075    -0.25700
N135        N  0.57733474  0.05247062  0.23211444    -0.25300
N136        N  0.44148777  0.95910853  0.10435257     0.01700
C137        C  0.37470760  0.08430710  0.28536611     0.43100
C138        C  0.54426451  0.08963679  0.08193861    -0.06600
N139        N  0.58281592  0.96306626  0.22948039    -0.25300
H140        H  0.64086057  0.08716703  0.22086483     0.07200
N141        N  0.37044313  0.06965296  0.24425133    -0.46600
H142        H  0.52024338  0.09896980  0.05619203     0.07200
C143        C  0.58911791  0.90420189  0.09882900     0.42900
C144        C  0.37989546  0.08377042  0.13654377    -0.06100
Co145      Co  0.49201543  0.00647797  0.10288106     0.73800
N146        N  0.59972493  0.09000290  0.13530113    -0.46300
C147        C  0.38179717  0.91517565  0.27898258     0.43200
N148        N  0.43908851  0.92499474  0.07944162    -0.46300
Co149      Co  0.57921215  0.00833876  0.18199808     0.73900
C150        C  0.62045210  0.93918819  0.23714994    -0.06600
C151        C  0.42026636  0.06844332  0.30196308    -0.06200
N152        N  0.40989393  0.95917016  0.13597799    -0.25700
N153        N  0.56115498  0.07509893  0.29864677    -0.46500
H154        H  0.44309943  0.92720188  0.32763232     0.07200
C155        C  0.55011589  0.92698942  0.07865816    -0.06600
Cl156      Cl  0.49400642  0.00537085  0.18430068    -0.49600
C157        C  0.58239731  0.11346040  0.10251826     0.43000
H158        H  0.35593385  0.91608350  0.15494143     0.07200
N159        N  0.60529258  0.92820789  0.13223246    -0.46300
C160        C  0.37570583  0.08367817  0.73755406     0.42800
N161        N  0.43703565  0.04656440  0.75462292     0.01700
C162        C  0.45181789  0.91879119  0.93630657    -0.06200
H163        H  0.47336276  0.09006982  0.96442981     0.07200
C164        C  0.61238041  0.08154764  0.87879575    -0.06500
Co165      Co  0.41382636  0.99989933  0.83686775     0.74200
N166        N  0.45156662  0.04537501  0.91515804    -0.25700
Co167      Co  0.50467075  0.00067824  0.91298315     0.74100
C168        C  0.59408987  0.10505127  0.91604479     0.42900
N169        N  0.58000234  0.04761252  0.78071423     0.01300
N170        N  0.55579358  0.04759122  0.90952108     0.01400
N171        N  0.39450859  0.91850356  0.88462252    -0.46600
H172        H  0.33920423  0.06847231  0.80224519     0.07200
N173        N  0.41710264  0.04529228  0.88600595     0.01700
N174        N  0.55788426  0.95571546  0.90821554     0.01400
C175        C  0.60019084  0.90069369  0.91596357     0.43000
N176        N  0.54713245  0.04844547  0.74979595    -0.25200
C177        C  0.37427589  0.93206355  0.77752710    -0.06100
N178        N  0.41776870  0.06871984  0.72236768    -0.46300
N179        N  0.56354735  0.92245710  0.93305095    -0.46500
C180        C  0.38090209  0.91827214  0.73255372     0.42800
N181        N  0.41942758  0.95336973  0.88377452     0.01700
N182        N  0.54936777  0.95845397  0.74682376    -0.25200
N183        N  0.40869512  0.04495451  0.78898101    -0.25700
N184        N  0.58157236  0.95787758  0.77836865     0.01300
H185        H  0.54909123  0.93073050  0.68171653     0.07200
H186        H  0.64352641  0.91480171  0.85425786     0.07300
N187        N  0.45373977  0.95397033  0.91313351    -0.25700
N188        N  0.58599097  0.04715849  0.87676230    -0.25300
N189        N  0.43984898  0.95680707  0.75221605     0.01700
C190        C  0.40874014  0.10326892  0.92088799     0.43100
C191        C  0.56090467  0.07635151  0.71947528    -0.06600
N192        N  0.58778408  0.95638287  0.87523114    -0.25300
H193        H  0.63865813  0.09042452  0.85507190     0.07200
N194        N  0.39106431  0.07961425  0.88792151    -0.46600
H195        H  0.54378325  0.08139757  0.68822590     0.07200
C196        C  0.61144880  0.91771677  0.72888980     0.42900
C197        C  0.37026540  0.06806479  0.78165952    -0.06100
Co198      Co  0.49333081  0.00264112  0.74983403     0.73800
N199        N  0.61551713  0.07289763  0.77320730    -0.46300
C200        C  0.41279884  0.89509959  0.91703802     0.43200
N201        N  0.42206928  0.93516643  0.71854295    -0.46300
Co202      Co  0.58414070  0.00209664  0.82789864     0.73900
C203        C  0.61643915  0.92321999  0.87771069    -0.06600
C204        C  0.44841871  0.08025745  0.93948902    -0.06200
N205        N  0.41135433  0.95620419  0.78652040    -0.25700
N206        N  0.55890283  0.08221322  0.93357051    -0.46500
H207        H  0.47686451  0.90942408  0.96119790     0.07200
C208        C  0.56517996  0.93357364  0.71381540    -0.06600
Cl209      Cl  0.49893949  0.00130149  0.83166917    -0.49600
C210        C  0.60664730  0.09255601  0.73559351     0.43000
H211        H  0.34297710  0.92997539  0.79766441     0.07200
N212        N  0.61852456  0.93446002  0.76878547    -0.46300
C213        C  0.08961828  0.35826848  0.38768353     0.42800
N214        N  0.05438338  0.35729505  0.44991329     0.01700
C215        C  0.05792103  0.18046019  0.58106722    -0.06200
H216        H  0.03024534  0.14133287  0.43347436     0.07200
C217        C  0.86918014  0.24508662  0.43022845    -0.06500
Co218      Co  0.07979823  0.28072712  0.49953597     0.74200
N219        N  0.03738828  0.20411605  0.45930859    -0.25700
Co220      Co  0.98504921  0.21208256  0.50805586     0.74100
C221        C  0.87483885  0.20273604  0.41438009     0.42900
N222        N  0.91639602  0.34171120  0.45407675     0.01300
N223        N  0.92959890  0.21591941  0.46145188     0.01400
N224        N  0.11550764  0.22777494  0.57141915    -0.46600
H225        H  0.12959301  0.29749754  0.40207326     0.07200
N226        N  0.07140305  0.23198987  0.45525697     0.01700
N227        N  0.93200265  0.22223307  0.55648007     0.01400
C228        C  0.87363998  0.21275184  0.60086728     0.43000
N229        N  0.95170889  0.36832897  0.45321836    -0.25200
C230        C  0.11685828  0.32917473  0.57985464    -0.06100
N231        N  0.05763631  0.37860969  0.41296961    -0.46300
N232        N  0.91349773  0.19484477  0.58406119    -0.46500
C233        C  0.10189431  0.36503627  0.60577086     0.42800
N234        N  0.07730069  0.23740580  0.54885509     0.01700
N235        N  0.95479232  0.37137026  0.55031548    -0.25200
N236        N  0.08159977  0.32386683  0.44962880    -0.25700
N237        N  0.91809408  0.34617562  0.54999678     0.01300
H238        H  0.98067576  0.41560842  0.59887878     0.07200
H239        H  0.83835665  0.27391066  0.58130709     0.07300
N240        N  0.04258687  0.21020025  0.55314832    -0.25700
N241        N  0.90382798  0.25031445  0.45944755    -0.25300
N242        N  0.05886619  0.36058959  0.54765724     0.01700
C243        C  0.09388149  0.18163700  0.41336906     0.43100
C244        C  0.94911278  0.38972044  0.41569390    -0.06600
N245        N  0.90493639  0.25575997  0.55326632    -0.25300
H246        H  0.84044606  0.26671910  0.42448082     0.07200
N247        N  0.10568351  0.21941607  0.42897536    -0.46600
H248        H  0.97463058  0.41211875  0.40440704     0.07200
C249        C  0.91239790  0.37880012  0.61134260     0.42900
C250        C  0.10574106  0.32221035  0.41202560    -0.06100
Co251      Co  0.00512253  0.36606589  0.50050467     0.73800
N252        N  0.89004924  0.34270568  0.41821556    -0.46300
C253        C  0.10664827  0.19274235  0.59312756     0.43200
N254        N  0.06545803  0.38310515  0.58405600    -0.46300
Co255      Co  0.91044339  0.29888615  0.50398181     0.73900
C256        C  0.86825958  0.25278648  0.58032138    -0.06600
C257        C  0.04878500  0.17074180  0.43408331    -0.06200
N258        N  0.08765293  0.32828131  0.54541513    -0.25700
N259        N  0.91227011  0.18577664  0.43576926    -0.46500
H260        H  0.03995259  0.15149622  0.58748709     0.07200
C261        C  0.95398610  0.39379415  0.58794074    -0.06600
Cl262      Cl  0.99509579  0.28922695  0.50315916    -0.49600
C263        C  0.90855879  0.37219289  0.39240428     0.43000
H264        H  0.14249822  0.30537209  0.58781244     0.07200
N265        N  0.89219925  0.34953963  0.58572256    -0.46300
C266        C  0.11218877  0.79859099  0.41048319     0.42800
N267        N  0.05569578  0.78447959  0.45532584     0.01700
C268        C  0.05129732  0.61116239  0.58790391    -0.06200
H269        H  0.02446922  0.58653641  0.40418961     0.07200
C270        C  0.88675473  0.66770262  0.41780082    -0.06500
Co271      Co  0.08315397  0.70625043  0.50212254     0.74200
N272        N  0.04612990  0.63233547  0.45289516    -0.25700
Co273      Co  0.99475918  0.63322403  0.50230214     0.74100
C274        C  0.90638730  0.63363192  0.39182185     0.42900
N275        N  0.91349224  0.75995575  0.45690192     0.01300
N276        N  0.94238722  0.63689316  0.45388915     0.01400
N277        N  0.10777203  0.66062589  0.58602704    -0.46600
H278        H  0.15051871  0.73760541  0.42494653     0.07200
N279        N  0.07974314  0.66062589  0.45303990     0.01700
N280        N  0.94336046  0.63735558  0.55154241     0.01400
C281        C  0.90609677  0.63324302  0.61260289     0.43000
N282        N  0.94559054  0.78985030  0.45682561    -0.25200
C283        C  0.12270511  0.76023911  0.57573851    -0.06100
N284        N  0.07217087  0.81419578  0.42936206    -0.46300
N285        N  0.94129767  0.61592116  0.58850660    -0.46500
C286        C  0.11488543  0.80172580  0.59339456     0.42800
N287        N  0.08112892  0.66113193  0.55026551     0.01700
N288        N  0.94670414  0.78986182  0.55108665    -0.25200
N289        N  0.08432780  0.75184058  0.45562302    -0.25700
N290        N  0.91442779  0.76009530  0.55058816     0.01300
H291        H  0.94678251  0.85103955  0.58182656     0.07200
H292        H  0.86036131  0.69031721  0.59678381     0.07300
N293        N  0.04740132  0.63294244  0.55065044    -0.25700
N294        N  0.91185284  0.66798538  0.45492154    -0.25300
N295        N  0.05676914  0.78520143  0.55056485     0.01700
C296        C  0.08736374  0.62950137  0.39059266     0.43100
C297        C  0.92886593  0.82086682  0.43128559    -0.06600
N298        N  0.91250294  0.66821148  0.55089955    -0.25300
H299        H  0.86113205  0.69103455  0.40844410     0.07200
N300        N  0.10476899  0.66025979  0.41637251    -0.46600
H301        H  0.94442201  0.85144626  0.42852005     0.07200
C302        C  0.88455650  0.80621416  0.59389370     0.42900
C303        C  0.11973597  0.75755537  0.42790002    -0.06100
Co304      Co  0.00148596  0.78845449  0.50346653     0.73800
N305        N  0.87549369  0.76902943  0.43371430    -0.46300
C306        C  0.09119557  0.62988479  0.61136256     0.43200
N307        N  0.07359003  0.81584932  0.57594176    -0.46300
Co308      Co  0.91274089  0.71359402  0.50330642     0.73900
C309        C  0.88673520  0.66747467  0.58746581    -0.06600
C310        C  0.04874220  0.61049207  0.41497540    -0.06200
N311        N  0.08601829  0.75295289  0.54930178    -0.25700
N312        N  0.94082061  0.61587386  0.41616586    -0.46500
H313        H  0.02730530  0.58729233  0.59872931     0.07200
C314        C  0.93092750  0.82059178  0.57811906    -0.06600
Cl315      Cl  0.99801519  0.71065244  0.50286384    -0.49600
C316        C  0.88205144  0.80651383  0.41597521     0.43000
H317        H  0.15412936  0.74100368  0.57767706     0.07200
N318        N  0.87710844  0.76907289  0.57474533    -0.46300
C319        C  0.77136601  0.84867374  0.62159144     0.20700
C320        C  0.72173125  0.85261053  0.61886140    -0.39200
C321        C  0.69984473  0.87383064  0.65394292     0.19700
C322        C  0.72582768  0.88931760  0.68895880     0.22300
C323        C  0.77536558  0.88623881  0.69117977    -0.39700
C324        C  0.79724307  0.86554566  0.65598491     0.21100
N325        N  0.79992546  0.82705168  0.59452410    -0.33000
C326        C  0.84431704  0.83051022  0.61138881    -0.10500
C327        C  0.84423197  0.85473518  0.64956130    -0.29300
N328        N  0.69717092  0.90615105  0.71920099    -0.45900
C329        C  0.65239905  0.90202355  0.70361889    -0.05200
C330        C  0.65244242  0.88215542  0.66262340    -0.22600
H331        H  0.70159797  0.83914711  0.59202855     0.19200
H332        H  0.79529451  0.89818855  0.71891758     0.18000
H333        H  0.87380488  0.86107945  0.67121031     0.14300
H334        H  0.62215305  0.87426069  0.64244183     0.14200
H335        H  0.78963051  0.80977168  0.56689406     0.32300
H336        H  0.70764957  0.91979970  0.74892063     0.35100
C337        C  0.22657132  0.84657984  0.62149836     0.20700
C338        C  0.27628984  0.84860087  0.62205697    -0.39200
C339        C  0.29618701  0.87462444  0.65439207     0.19700
C340        C  0.26832468  0.89678369  0.68374885     0.22300
C341        C  0.21858577  0.89585217  0.68222934    -0.39700
C342        C  0.19867995  0.86979025  0.64993092     0.21100
N343        N  0.19968281  0.82096372  0.59707280    -0.33000
C344        C  0.15425962  0.82778828  0.60967876    -0.10500
C345        C  0.15200625  0.85854441  0.64229206    -0.29300
N346        N  0.29537270  0.91577203  0.71403836    -0.45900
C347        C  0.34087002  0.90586559  0.70413330    -0.05200
C348        C  0.34298516  0.88069220  0.66660619    -0.22600
H349        H  0.29788819  0.82969503  0.60031393     0.19200
H350        H  0.19704930  0.91259702  0.70587876     0.18000
H351        H  0.12101067  0.86910042  0.66000321     0.14300
H352        H  0.37412840  0.86673681  0.65192765     0.14200
H353        H  0.21180214  0.79907621  0.57408314     0.32300
H354        H  0.28331715  0.93356166  0.74064947     0.35100
C355        C  0.71847762  0.12764583  0.69700625     0.20700
C356        C  0.76805018  0.13051039  0.69751151    -0.39200
C357        C  0.78807700  0.15427188  0.66420254     0.19700
C358        C  0.76048988  0.17434392  0.63337089     0.22300
C359        C  0.71075693  0.17105166  0.63253985    -0.39700
C360        C  0.69072117  0.14653645  0.66548241     0.21100
N361        N  0.69149063  0.10706796  0.72536585    -0.33000
C362        C  0.64605072  0.11207561  0.71189736    -0.10500
C363        C  0.64392318  0.13652065  0.67435705    -0.29300
N364        N  0.78786121  0.19683113  0.60674588    -0.45900
C365        C  0.83321319  0.19063535  0.62021962    -0.05200
C366        C  0.83487109  0.16397092  0.65588142    -0.22600
H367        H  0.78943410  0.11544593  0.72223817     0.19200
H368        H  0.68931236  0.18663609  0.60822541     0.18000
H369        H  0.61267580  0.14587833  0.65634761     0.14300
H370        H  0.86577185  0.15442891  0.67429217     0.14200
H371        H  0.70351258  0.09012612  0.75226273     0.32300
H372        H  0.77629173  0.21568553  0.58114095     0.35100
C373        C  0.26185388  0.10892744  0.69238782     0.20700
C374        C  0.21210926  0.11121634  0.69213759    -0.39200
C375        C  0.19158932  0.13287431  0.65716768     0.19700
C376        C  0.21891623  0.15116790  0.62523237     0.22300
C377        C  0.26871333  0.14819026  0.62498999    -0.39700
C378        C  0.28923086  0.12618853  0.65986920     0.21100
N379        N  0.28940311  0.09173740  0.72318693    -0.33000
C380        C  0.33491832  0.09764589  0.71055835    -0.10500
C381        C  0.33632473  0.11881136  0.67077821    -0.29300
N382        N  0.19141562  0.17304702  0.59784224    -0.45900
C383        C  0.14619736  0.16859873  0.61204367    -0.05200
C384        C  0.14471476  0.14325758  0.64880450    -0.22600
H385        H  0.19099767  0.09804656  0.71802021     0.19200
H386        H  0.28992541  0.16295755  0.60016541     0.18000
H387        H  0.36738304  0.12854714  0.65302775     0.14300
H388        H  0.11410331  0.13578258  0.66836500     0.14200
H389        H  0.27757623  0.07703798  0.75143821     0.32300
H390        H  0.20293010  0.19113590  0.57173023     0.35100
C391        C  0.72460976  0.89910731  0.32891011     0.20700
C392        C  0.77425156  0.90023132  0.33186362    -0.39200
C393        C  0.79495361  0.87238090  0.36140652     0.19700
C394        C  0.76790111  0.84551416  0.38595128     0.22300
C395        C  0.71810094  0.84511532  0.38381292    -0.39700
C396        C  0.69738049  0.87302715  0.35421599     0.21100
N397        N  0.69727999  0.92010584  0.30077914    -0.33000
C398        C  0.65215318  0.90764352  0.30791317    -0.10500
C399        C  0.65054707  0.87853501  0.34152225    -0.29300
N400        N  0.79592984  0.81987314  0.40885367    -0.45900
C401        C  0.84119410  0.83037778  0.39916120    -0.05200
C402        C  0.84214118  0.86342366  0.36991671    -0.22600
H403        H  0.79528200  0.92024240  0.31137963     0.19200
H404        H  0.69719047  0.82355599  0.40259836     0.18000
H405        H  0.61987662  0.86202916  0.35327917     0.14300
H406        H  0.87290485  0.87746347  0.35521291     0.14200
H407        H  0.70901034  0.94104148  0.27726303     0.32300
H408        H  0.78484920  0.79588978  0.42922883     0.35100
C409        C  0.26839470  0.88609943  0.31939370     0.20700
C410        C  0.21871449  0.88467597  0.31909342    -0.39200
C411        C  0.19800938  0.86056479  0.35176738     0.19700
C412        C  0.22509082  0.83917989  0.38199358     0.22300
C413        C  0.27485387  0.84105154  0.38269840    -0.39700
C414        C  0.29556989  0.86560638  0.35023644     0.21100
N415        N  0.29609064  0.90580821  0.29088597    -0.33000
C416        C  0.34137751  0.89836323  0.30350140    -0.10500
C417        C  0.34268523  0.87350983  0.34074925    -0.29300
N418        N  0.19730660  0.81607545  0.40749164    -0.45900
C419        C  0.15218761  0.82287561  0.39376203    -0.05200
C420        C  0.15102690  0.85080787  0.35919831    -0.22600
H421        H  0.19777887  0.90056263  0.29462035     0.19200
H422        H  0.29584280  0.82396011  0.40621410     0.18000
H423        H  0.37364020  0.86210063  0.35785327     0.14300
H424        H  0.12047967  0.86059259  0.34042883     0.14200
H425        H  0.28471513  0.92336504  0.26419759     0.32300
H426        H  0.20858827  0.79589726  0.43206614     0.35100
C427        C  0.69863944  0.15238233  0.32377254     0.20700
C428        C  0.73584059  0.18071152  0.31987313    -0.39200
C429        C  0.77397754  0.17490211  0.34849394     0.19700
C430        C  0.77537007  0.14320329  0.37884986     0.22300
C431        C  0.73783601  0.11472270  0.38284218    -0.39700
C432        C  0.69919435  0.12077154  0.35426171     0.21100
N433        N  0.66046930  0.14949586  0.29776026    -0.33000
C434        C  0.63604946  0.11599531  0.31160261    -0.10500
C435        C  0.65871673  0.09738726  0.34720543    -0.29300
N436        N  0.81436607  0.14656835  0.40427898    -0.45900
C437        C  0.83726608  0.18093652  0.39003322    -0.05200
C438        C  0.81331333  0.19907943  0.35516415    -0.22600
H439        H  0.73515472  0.20553305  0.29615975     0.19200
H440        H  0.73854257  0.08989094  0.40652758     0.18000
H441        H  0.64937612  0.06847986  0.36283586     0.14300
H442        H  0.82172165  0.22802272  0.33911743     0.14200
H443        H  0.65295976  0.16769213  0.27040822     0.32300
H444        H  0.82301214  0.12851946  0.43144158     0.35100
C445        C  0.19996337  0.12733719  0.38712979     0.20700
C446        C  0.24660892  0.11345151  0.39515724    -0.39200
C447        C  0.27579813  0.10918095  0.35803043     0.19700
C448        C  0.25922942  0.11787405  0.31639969     0.22300
C449        C  0.21270733  0.13104525  0.30834532    -0.39700
C450        C  0.18373865  0.13537931  0.34521953     0.21100
N451        N  0.16728389  0.13903199  0.41688503    -0.33000
C452        C  0.13015122  0.15445970  0.39368824    -0.10500
C453        C  0.13905260  0.15241450  0.34890179    -0.29300
N454        N  0.29317720  0.11162524  0.28655355    -0.45900
C455        C  0.33204616  0.09876796  0.30878588    -0.05200
C456        C  0.32280706  0.09690742  0.35373175    -0.22600
H457        H  0.25963396  0.10778699  0.42795659     0.19200
H458        H  0.20037543  0.13857985  0.27574767     0.18000
H459        H  0.11791145  0.16574036  0.32291309     0.14300
H460        H  0.34652264  0.08667305  0.37938951     0.14200
H461        H  0.17145008  0.13955879  0.45092435     0.32300
H462        H  0.28976257  0.11506024  0.25267015     0.35100
C463        C  0.58787743  0.71866742  0.09032732     0.20700
C464        C  0.56252529  0.75297430  0.07476230    -0.39200
C465        C  0.58080137  0.79212693  0.08589911     0.19700
C466        C  0.62020860  0.79690995  0.11245406     0.22300
C467        C  0.64511618  0.76241451  0.12905532    -0.39700
C468        C  0.62761716  0.72302920  0.11653891     0.21100
N469        N  0.57963843  0.67844672  0.08093943    -0.33000
C470        C  0.61451894  0.65667538  0.10097991    -0.10500
C471        C  0.64493583  0.68334546  0.12402984    -0.29300
N472        N  0.62916256  0.83759768  0.11959639    -0.45900
C473        C  0.59543872  0.85864562  0.09699480    -0.05200
C474        C  0.56491644  0.83128552  0.07529239    -0.22600
H475        H  0.53100901  0.74927530  0.05513953     0.19200
H476        H  0.67622435  0.76597156  0.14951121     0.18000
H477        H  0.67663154  0.67500286  0.14194063     0.14300
H478        H  0.53429435  0.83893339  0.05560530     0.14200
H479        H  0.55274016  0.66674309  0.06079017     0.32300
H480        H  0.65595184  0.85026641  0.13922326     0.35100
C481        C  0.61694341  0.22025307  0.11283011     0.20700
C482        C  0.64432619  0.25447416  0.12684017    -0.39200
C483        C  0.62563192  0.29398641  0.11712350     0.19700
C484        C  0.58297987  0.29872911  0.09534898     0.22300
C485        C  0.55582364  0.26473670  0.08159481    -0.39700
C486        C  0.57460538  0.22541045  0.09064269     0.21100
N487        N  0.62588570  0.17952786  0.11899250    -0.33000
C488        C  0.58911882  0.15883725  0.10020577    -0.10500
C489        C  0.55669359  0.18642916  0.08183451    -0.29300
N490        N  0.57366771  0.33899174  0.08804136    -0.45900
C491        C  0.61073102  0.36035245  0.10505553    -0.05200
C492        C  0.64380397  0.33346409  0.12391055    -0.22600
H493        H  0.67773742  0.25062663  0.14376927     0.19200
H494        H  0.52286798  0.26886409  0.06436510     0.18000
H495        H  0.52361785  0.17908033  0.06569430     0.14300
H496        H  0.67758247  0.34153638  0.13843957     0.14200
H497        H  0.65470025  0.16661930  0.13559036     0.32300
H498        H  0.54456849  0.35100739  0.07111397     0.35100
C499        C  0.63049896  0.71808603  0.91356386     0.20700
C500        C  0.65102993  0.75428641  0.89713711    -0.39200
C501        C  0.63228136  0.79183603  0.91315383     0.19700
C502        C  0.59605663  0.79332383  0.94349932     0.22300
C503        C  0.57615437  0.75703152  0.96055451    -0.39700
C504        C  0.59446697  0.71926282  0.94415238     0.21100
N505        N  0.64211809  0.67871575  0.90317322    -0.33000
C506        C  0.61344366  0.65438577  0.92729809    -0.10500
C507        C  0.58294580  0.67848946  0.95325876    -0.29300
N508        N  0.58185915  0.83282257  0.95060928    -0.45900
C509        C  0.60891138  0.85637866  0.92405154    -0.05200
C510        C  0.64131698  0.83201225  0.90081002    -0.22600
H511        H  0.67883593  0.75326735  0.87283854     0.19200
H512        H  0.54774606  0.75833774  0.98390740     0.18000
H513        H  0.55675033  0.66768025  0.97624290     0.14300
H514        H  0.66598499  0.84198959  0.87603379     0.14200
H515        H  0.66867511  0.66909607  0.88155662     0.32300
H516        H  0.55402365  0.84291878  0.97051965     0.35100
C517        C  0.59206010  0.28957377  0.94252647     0.20700
C518        C  0.57603821  0.25347345  0.96336163    -0.39200
C519        C  0.58879703  0.21546050  0.94339005     0.19700
C520        C  0.61611673  0.21373751  0.90587108     0.22300
C521        C  0.63227719  0.24965376  0.88510076    -0.39700
C522        C  0.61900630  0.28751407  0.90478099     0.21100
N523        N  0.58569941  0.32945703  0.95543416    -0.33000
C524        C  0.60899609  0.35274548  0.92563823    -0.10500
C525        C  0.62989600  0.32765370  0.89347866    -0.29300
N526        N  0.62276688  0.17421051  0.89268225    -0.45900
C527        C  0.59911786  0.15037594  0.92165338    -0.05200
C528        C  0.57753507  0.17493391  0.95396720    -0.22600
H529        H  0.55492641  0.25484743  0.99270133     0.19200
H530        H  0.65351318  0.24821475  0.85565678     0.18000
H531        H  0.65146655  0.33738163  0.86623196     0.14300
H532        H  0.55559387  0.16463014  0.98071469     0.14200
H533        H  0.56783104  0.34006471  0.98335316     0.32300
H534        H  0.64118596  0.16429266  0.86481502     0.35100
C535        C  0.86993131  0.63859308  0.72443358     0.20700
C536        C  0.84255563  0.65305804  0.75960801    -0.39200
C537        C  0.84955751  0.63266828  0.79934593     0.19700
C538        C  0.88191428  0.60051516  0.80405444     0.22300
C539        C  0.91032196  0.58663376  0.76883253    -0.39700
C540        C  0.90277588  0.60679873  0.72863590     0.21100
N541        N  0.86723317  0.65134145  0.68289322    -0.33000
C542        C  0.89843482  0.62766102  0.65992529    -0.10500
C543        C  0.92160638  0.59946025  0.68731130    -0.29300
N544        N  0.87695967  0.58265857  0.84354149    -0.45900
C545        C  0.84086945  0.60337929  0.86352439    -0.05200
C546        C  0.82329156  0.63491918  0.83711925    -0.22600
H547        H  0.81582019  0.67697648  0.75568075     0.19200
H548        H  0.93453585  0.56061757  0.77187351     0.18000
H549        H  0.94806789  0.57652825  0.67817778     0.14300
H550        H  0.79221006  0.65398379  0.84293689     0.14200
H551        H  0.84502519  0.67470612  0.67096488     0.32300
H552        H  0.89406526  0.55581566  0.85454025     0.35100
C553        C  0.91119937  0.61055630  0.27673743     0.20700
C554        C  0.91974331  0.58716422  0.23825356    -0.39200
C555        C  0.89790103  0.60217404  0.19993720     0.19700
C556        C  0.87065438  0.63820134  0.20019270     0.22300
C557        C  0.86425003  0.66248983  0.23798596    -0.39700
C558        C  0.88467180  0.64686311  0.27612766     0.21100
N559        N  0.92307275  0.60080600  0.31823442    -0.33000
C560        C  0.90317219  0.63098953  0.34376255    -0.10500
C561        C  0.87921241  0.66017499  0.31856683    -0.29300
N562        N  0.84518140  0.64115498  0.16328096    -0.45900
C563        C  0.85556464  0.60677833  0.13923864    -0.05200
C564        C  0.88927979  0.58210475  0.16038204    -0.22600
H565        H  0.93837620  0.55764961  0.23882349     0.19200
H566        H  0.84106259  0.68941317  0.23854037     0.18000
H567        H  0.85938474  0.68714522  0.32975710     0.14300
H568        H  0.89989191  0.55071731  0.15139786     0.14200
H569        H  0.94243893  0.57492956  0.32859659     0.32300
H570        H  0.81827743  0.66273679  0.15708730     0.35100
C571        C  0.84577145  0.37722837  0.79561086     0.20700
C572        C  0.83578501  0.35944259  0.75462350    -0.39200
C573        C  0.86594615  0.37083670  0.72072230     0.19700
C574        C  0.90371484  0.39763515  0.72687517     0.22300
C575        C  0.91448475  0.41476141  0.76839303    -0.39700
C576        C  0.88390843  0.40349971  0.80261121     0.21100
N577        N  0.81832855  0.37568496  0.83120992    -0.33000
C578        C  0.83881045  0.40093203  0.86145287    -0.10500
C579        C  0.88025847  0.41855563  0.84518283    -0.29300
N580        N  0.92557445  0.40472566  0.68847394    -0.45900
C581        C  0.90105040  0.38228910  0.65811983    -0.05200
C582        C  0.86387544  0.36076302  0.67706589    -0.22600
H583        H  0.80527686  0.33976559  0.74906246     0.19200
H584        H  0.94316558  0.43658588  0.77328358     0.18000
H585        H  0.90163321  0.44256333  0.86053060     0.14300
H586        H  0.83853306  0.34050086  0.66091769     0.14200
H587        H  0.78572437  0.36068388  0.83375439     0.32300
H588        H  0.95504959  0.42353562  0.68325674     0.35100
C589        C  0.85351706  0.36630264  0.20418639     0.20700
C590        C  0.84464389  0.34555439  0.24341808    -0.39200
C591        C  0.87068507  0.35932183  0.27979539     0.19700
C592        C  0.90391031  0.39076190  0.27723927     0.22300
C593        C  0.91409553  0.41053565  0.23753901    -0.39700
C594        C  0.88740170  0.39720938  0.20107414     0.21100
N595        N  0.82672413  0.36477218  0.16790392    -0.33000
C596        C  0.84323309  0.39489336  0.14141499    -0.10500
C597        C  0.88177867  0.41531066  0.16050670    -0.29300
N598        N  0.92165076  0.39979383  0.31717531    -0.45900
C599        C  0.89920462  0.37402264  0.34513134    -0.05200
C600        C  0.86728995  0.34830029  0.32304105    -0.22600
H601        H  0.81694467  0.32254181  0.24614843     0.19200
H602        H  0.93864415  0.43625879  0.23581031     0.18000
H603        H  0.89848920  0.44350367  0.14924232     0.14300
H604        H  0.84438842  0.32493500  0.33686255     0.14200
H605        H  0.79596625  0.34726569  0.16335294     0.32300
H606        H  0.94708572  0.42224162  0.32493780     0.35100
C607        C  0.38395874  0.78740187  0.90277950     0.20700
C608        C  0.35897541  0.75239975  0.88701554    -0.39200
C609        C  0.37948573  0.71343920  0.89630218     0.19700
C610        C  0.42171943  0.71000635  0.91903804     0.22300
C611        C  0.44658713  0.74475231  0.93424003    -0.39700
C612        C  0.42586123  0.78342341  0.92590466     0.21100
N613        N  0.37288575  0.82789815  0.89777287    -0.33000
C614        C  0.40790353  0.84952666  0.91824261    -0.10500
C615        C  0.44122671  0.82279020  0.93657308    -0.29300
N616        N  0.43273239  0.67006628  0.92624193    -0.45900
C617        C  0.39714709  0.64750773  0.90833359    -0.05200
C618        C  0.36337008  0.67334884  0.88880648    -0.22600
H619        H  0.32582004  0.75526133  0.86944524     0.19200
H620        H  0.47919991  0.74157775  0.95215297     0.18000
H621        H  0.47331409  0.83099439  0.95390215     0.14300
H622        H  0.33025386  0.66419162  0.87367581     0.14200
H623        H  0.34395735  0.84008457  0.88074410     0.32300
H624        H  0.46179463  0.65898894  0.94391579     0.35100
C625        C  0.38509365  0.28649167  0.90067865     0.20700
C626        C  0.36204232  0.24929742  0.88882069    -0.39200
C627        C  0.38292942  0.21258306  0.90448870     0.19700
C628        C  0.42382776  0.21301548  0.92953232     0.22300
C629        C  0.44741646  0.24997591  0.94024861    -0.39700
C630        C  0.42629363  0.28661472  0.92530188     0.21100
N631        N  0.37038808  0.32567365  0.89327689    -0.33000
C632        C  0.40226546  0.35071005  0.91379894    -0.10500
C633        C  0.43796877  0.32746821  0.93364606    -0.29300
N634        N  0.43686568  0.17426180  0.94028847    -0.45900
C635        C  0.40427785  0.14879250  0.92161083    -0.05200
C636        C  0.36995879  0.17147747  0.89906673    -0.22600
H637        H  0.32968636  0.24902960  0.86975317     0.19200
H638        H  0.47938877  0.25022523  0.95955676     0.18000
H639        H  0.46706056  0.33880522  0.95356455     0.14300
H640        H  0.34045403  0.15942593  0.88017528     0.14200
H641        H  0.33943767  0.33475253  0.87713443     0.32300
H642        H  0.46694032  0.16573379  0.95805910     0.35100
C643        C  0.37184037  0.71994419  0.09543511     0.20700
C644        C  0.35249745  0.75661110  0.11298202    -0.39200
C645        C  0.37210014  0.79357198  0.09772196     0.19700
C646        C  0.40807676  0.79424952  0.06708100     0.22300
C647        C  0.42686855  0.75741774  0.04886632    -0.39700
C648        C  0.40750216  0.72017478  0.06443184     0.21100
N649        N  0.35996643  0.68091823  0.10567446    -0.33000
C650        C  0.38822056  0.65584949  0.08115074    -0.10500
C651        C  0.41838269  0.67910847  0.05481488    -0.29300
N652        N  0.42262577  0.83353990  0.06043603    -0.45900
C653        C  0.39572428  0.85764819  0.08736889    -0.05200
C654        C  0.36357140  0.83385237  0.11069953    -0.22600
H655        H  0.32501672  0.75635162  0.13760635     0.19200
H656        H  0.45528138  0.75779525  0.02536202     0.18000
H657        H  0.44441106  0.66756840  0.03168303     0.14300
H658        H  0.33884272  0.84430226  0.13553452     0.14200
H659        H  0.33396051  0.67199110  0.12787575     0.32300
H660        H  0.45009978  0.84317219  0.04018191     0.35100
C661        C  0.41026196  0.21559070  0.07777962     0.20700
C662        C  0.42900492  0.25128820  0.05842099    -0.39200
C663        C  0.41471889  0.28952889  0.07695175     0.19700
C664        C  0.38369856  0.29178922  0.11191253     0.22300
C665        C  0.36500686  0.25615482  0.13131706    -0.39700
C666        C  0.37935721  0.21811993  0.11277351     0.21100
N667        N  0.41954000  0.17561188  0.06726385    -0.33000
C668        C  0.39433443  0.15276217  0.09597840    -0.10500
C669        C  0.36848570  0.17816227  0.12451375    -0.29300
N670        N  0.37309712  0.33152187  0.12185902    -0.45900
C671        C  0.39734256  0.35492011  0.09298736    -0.05200
C672        C  0.42428390  0.32989262  0.06472379    -0.22600
H673        H  0.45281544  0.24932926  0.03097478     0.19200
H674        H  0.34061350  0.25793409  0.15855339     0.18000
H675        H  0.34633376  0.16875526  0.15148305     0.14300
H676        H  0.44578451  0.33977036  0.03748955     0.14200
H677        H  0.44251394  0.16456546  0.04299828     0.32300
H678        H  0.34937599  0.34194089  0.14580043     0.35100
C679        C  0.12612048  0.60505481  0.80277668     0.20700
C680        C  0.09465069  0.59187838  0.76963451    -0.39200
C681        C  0.10209188  0.60891379  0.72797841     0.19700
C682        C  0.13778734  0.63725099  0.72016451     0.22300
C683        C  0.16855339  0.65103145  0.75334539    -0.39700
C684        C  0.16138008  0.63380741  0.79477872     0.21100
N685        N  0.13138481  0.58871083  0.84299089    -0.33000
C686        C  0.17061406  0.60684037  0.86024544    -0.10500
C687        C  0.18967501  0.63560225  0.83144186    -0.29300
N688        N  0.13864967  0.64774971  0.67770322    -0.45900
C689        C  0.10332576  0.62593510  0.65812667    -0.05200
C690        C  0.07965544  0.60130932  0.68839189    -0.22600
H691        H  0.06794933  0.56848692  0.77529123     0.19200
H692        H  0.19744622  0.67210469  0.74688305     0.18000
H693        H  0.22306751  0.65176857  0.83478144     0.14300
H694        H  0.05002843  0.58076214  0.68230859     0.14200
H695        H  0.11242106  0.56388238  0.85596249     0.32300
H696        H  0.16185770  0.66853691  0.66291402     0.35100
C697        C  0.11715723  0.60372097  0.19741815     0.20700
C698        C  0.08733727  0.58970664  0.23110105    -0.39200
C699        C  0.09459539  0.60798825  0.27279240     0.19700
C700        C  0.12840241  0.63838567  0.28003602     0.22300
C701        C  0.15725079  0.65311579  0.24628411    -0.39700
C702        C  0.15055304  0.63444837  0.20492624     0.21100
N703        N  0.12274671  0.58671628  0.15708146    -0.33000
C704        C  0.16036145  0.60639052  0.13919202    -0.10500
C705        C  0.17811214  0.63664882  0.16789185    -0.29300
N706        N  0.13010966  0.64943876  0.32264979    -0.45900
C707        C  0.09730957  0.62592396  0.34307756    -0.05200
C708        C  0.07426428  0.59967629  0.31301361    -0.22600
H709        H  0.06226272  0.56472814  0.22584432     0.19200
H710        H  0.18479223  0.67582165  0.25234529     0.18000
H711        H  0.21026587  0.65445042  0.16411845     0.14300
H712        H  0.04667652  0.57736798  0.31969302     0.14200
H713        H  0.10513158  0.56070748  0.14431789     0.32300
H714        H  0.15248036  0.67155614  0.33705795     0.35100
C715        C  0.11131516  0.38897112  0.72078512     0.20700
C716        C  0.09993808  0.40716217  0.76171105    -0.39200
C717        C  0.12901897  0.39552425  0.79721440     0.19700
C718        C  0.16642747  0.36795190  0.79196106     0.22300
C719        C  0.17712690  0.34925227  0.75150825    -0.39700
C720        C  0.14837429  0.36097594  0.71633801     0.21100
N721        N  0.09015835  0.39533411  0.68165465    -0.33000
C722        C  0.11416308  0.37102619  0.65247353    -0.10500
C723        C  0.15068263  0.34937839  0.67301221    -0.29300
N724        N  0.19285464  0.36643567  0.82845126    -0.45900
C725        C  0.17262707  0.39321894  0.85750676    -0.05200
C726        C  0.13210060  0.41150716  0.83955048    -0.22600
H727        H  0.07175889  0.42985188  0.76532074     0.19200
H728        H  0.20707015  0.32847216  0.74730553     0.18000
H729        H  0.17548494  0.32763284  0.65830120     0.14300
H730        H  0.11138178  0.43677731  0.85346215     0.14200
H731        H  0.06096716  0.41441589  0.67532875     0.32300
H732        H  0.22508584  0.35077088  0.83208584     0.35100
C733        C  0.12961447  0.35822490  0.27686118     0.20700
C734        C  0.15717504  0.34473648  0.24138134    -0.39200
C735        C  0.15259848  0.36789704  0.20306721     0.19700
C736        C  0.12258286  0.40193591  0.20001197     0.22300
C737        C  0.09431010  0.41516435  0.23556433    -0.39700
C738        C  0.09917950  0.39199806  0.27425088     0.21100
N739        N  0.12971732  0.34240502  0.31729379    -0.33000
C740        C  0.09928664  0.36613015  0.34107776    -0.10500
C741        C  0.07926253  0.39743663  0.31538515    -0.29300
N742        N  0.12919850  0.42148568  0.16166897    -0.45900
C743        C  0.16382703  0.39974275  0.14066311    -0.05200
C744        C  0.17904681  0.36613345  0.16538452    -0.22600
H745        H  0.18199857  0.31911913  0.24404201     0.19200
H746        H  0.07185054  0.44248910  0.23385923     0.18600
H747        H  0.05407064  0.42110192  0.32551529     0.14300
H748        H  0.20867756  0.34562639  0.15855317     0.14200
H749        H  0.14977026  0.31710242  0.32807590     0.32300
H750        H  0.11400105  0.44966035  0.15204051     0.35100
loop_ 
_geom_bond_atom_site_label_1 
_geom_bond_atom_site_label_2 
_geom_bond_distance 
_geom_bond_site_symmetry_2 
_ccdc_geom_bond_type 
C1           N19   1.349       .  A
C1           C38   1.458       .  S
C1          C671   1.471       .  S
N2           N19   1.325       .  A
N2           N24   1.318       .  A
N2          Co39   2.083       .  S
C3           N28   1.351       .  A
C3           C41   1.471       .  S
C3           H48   1.081       .  S
H4           C45   1.081       .  S
C5           N29   1.331       .  A
C5            C9   1.446       .  S
C5           H34   1.082       .  S
Co6          N24   2.084       .  S
Co6          N14   2.081       .  S
Co6          N46   2.082       .  S
Co6          N22   2.082       .  S
Co6         Cl50   2.410       .  S
N7           C45   1.348       .  A
N7           N14   1.323       .  A
N7           Co8   2.101   1_554  S
Co8          N11   2.116       .  S
Co8          N28   2.110   1_556  S
Co8          N15   2.103       .  S
Co8         Cl50   2.505   1_556  S
C9           N47   1.359       .  A
C9          C725   1.471       .  S
N10          N17   1.317       .  A
N10          N40   1.326       .  A
N10         Co43   2.093       .  S
N11          N29   1.321       .  A
N11          N47   1.332       .  A
N12          C41   1.343       .  A
N12          N22   1.320       .  A
H13          C38   1.081       .  S
N14          N35   1.319       .  A
N15          N33   1.321       .  A
N15          N20   1.330       .  A
C16          N20   1.357       .  A
C16          C44   1.449       .  S
C16         C686   1.468       .  S
N17          C32   1.340       .  A
N17         Co39   2.074   1_556  S
C18          N46   1.339       .  A
C18          C21   1.456       .  S
C18          H52   1.080       .  S
C21          N42   1.347       .  A
C21         C650   1.468       .  S
N22          N28   1.322       .  A
N23          C49   1.339       .  A
N23          N25   1.316       .  A
N23         Co39   2.076   1_556  S
N24          C38   1.340       .  A
N25          N53   1.326       .  A
N25         Co43   2.081       .  S
H26          C49   1.081       .  S
H27          C44   1.082       .  S
N29         Co43   2.063       .  S
N30          N42   1.325       .  A
N30          N46   1.318       .  A
N30         Co39   2.080       .  S
C31          N35   1.343       .  A
C31          C45   1.466       .  S
C31         C743   1.465       .  S
C32          C51   1.457       .  S
C32          H36   1.081       .  S
N33          C44   1.332       .  A
N33         Co43   2.076       .  S
C37          N53   1.349       .  A
C37          C49   1.457       .  S
C37         C617   1.469       .  S
Co39        Cl50   2.488       .  S
N40          C51   1.351       .  A
C41         C704   1.474       .  S
Co43        Cl50   2.404   1_556  S
C51         C632   1.470       .  S
C54          N72   1.356       .  A
C54          C91   1.449       .  S
C54         C596   1.463       .  S
N55          N72   1.329       .  A
N55          N77   1.322       .  A
N55         Co92   2.103       .  S
C56          N81   1.339       .  A
C56          C94   1.455       .  S
C56         H101   1.081       .  S
H57          C98   1.081       .  S
C58          N82   1.339       .  A
C58          C62   1.456       .  S
C58          H87   1.081       .  S
Co59         N77   2.073       .  S
Co59         N67   2.094       .  S
Co59         N99   2.080       .  S
Co59         N75   2.098       .  S
Co59       Cl103   2.411       .  S
N60          C98   1.337       .  A
N60          N67   1.316       .  A
N60         Co61   2.063       .  S
Co61         N64   2.091   1_554  S
Co61         N81   2.079       .  S
Co61         N68   2.076   1_554  S
Co61       Cl103   2.485       .  S
C62         N100   1.351       .  A
C62         C524   1.473       .  S
N63          N70   1.321       .  A
N63          N93   1.319       .  A
N63         Co96   2.079       .  S
N64          N82   1.318       .  A
N64         N100   1.328       .  A
N65          C94   1.353       .  A
N65          N75   1.328       .  A
H66          C91   1.082       .  S
N67          N88   1.327       .  A
N68          N86   1.317       .  A
N68          N73   1.325       .  A
C69          N73   1.347       .  A
C69          C97   1.458       .  S
C69         C506   1.469       .  S
N70          C85   1.347       .  A
N70         Co92   2.090   1_556  S
C71          N99   1.334       .  A
C71          C74   1.454       .  S
C71         H105   1.082       .  S
C74          N95   1.351       .  A
C74         C563   1.463       .  S
N75          N81   1.318       .  A
N76         C102   1.347       .  A
N76          N78   1.322       .  A
N76         Co92   2.097   1_556  S
N77          C91   1.332       .  A
N78         N106   1.320       .  A
N78         Co96   2.085       .  S
H79         C102   1.081       .  S
H80          C97   1.080       .  S
N82         Co96   2.082       .  S
N83          N95   1.327       .  A
N83          N99   1.321       .  A
N83         Co92   2.087       .  S
C84          N88   1.351       .  A
C84          C98   1.454       .  S
C84         C491   1.468       .  S
C85         C104   1.465       .  S
C85          H89   1.082       .  S
N86          C97   1.340       .  A
N86         Co96   2.081       .  S
C90         N106   1.344       .  A
C90         C102   1.466       .  S
C90         C545   1.467       .  S
Co92       Cl103   2.495       .  S
N93         C104   1.343       .  A
C94         C470   1.474       .  S
Co96       Cl103   2.411   1_556  S
C104        C578   1.465       .  S
C107        N125   1.349       .  A
C107        C144   1.456       .  S
C107        C668   1.465       .  S
N108        N125   1.325       .  A
N108        N130   1.317       .  A
N108       Co145   2.081       .  S
C109        N134   1.352       .  A
C109        C147   1.473       .  S
C109        H154   1.081       .  S
H110        C151   1.081       .  S
C111        N135   1.333       .  A
C111        C115   1.448       .  S
C111        H140   1.082       .  S
Co112       N130   2.072       .  S
Co112       N120   2.064       .  S
Co112       N152   2.061   1_545  S
Co112       N128   2.076   1_545  S
Co112      Cl156   2.407       .  S
N113        C151   1.352       .  A
N113        N120   1.322       .  A
N113       Co114   2.116       .  S
Co114       N117   2.112       .  S
Co114       N134   2.110   1_545  S
Co114       N121   2.118   1_545  S
Co114      Cl156   2.502       .  S
C115        N153   1.356       .  A
C115        C434   1.468       .  S
N116        N123   1.317       .  A
N116        N146   1.326       .  A
N116       Co149   2.084       .  S
N117        N135   1.323       .  A
N117        N153   1.330       .  A
N118        C147   1.341       .  A
N118        N128   1.318       .  A
H119        C144   1.081       .  S
N120        N141   1.317       .  A
N121        N139   1.322       .  A
N121        N126   1.333       .  A
C122        N126   1.360       .  A
C122        C150   1.448       .  S
C122        C398   1.477       .  S
N123        C138   1.343       .  A
N123       Co145   2.087       .  S
C124        N152   1.333       .  A
C124        C127   1.451       .  S
C124        H158   1.081       .  S
C127        N148   1.352       .  A
C127        C653   1.466       .  S
N128        N134   1.323       .  A
N129        C155   1.340       .  A
N129        N131   1.317       .  A
N129       Co145   2.080   1_565  S
N130        C144   1.337       .  A
N131        N159   1.326       .  A
N131       Co149   2.087   1_565  S
H132        C155   1.081       .  S
H133        C150   1.082       .  S
N135       Co149   2.073       .  S
N136        N148   1.327       .  A
N136        N152   1.317       .  A
N136       Co145   2.091   1_565  S
C137        N141   1.340       .  A
C137        C151   1.473       .  S
C137        C455   1.474       .  S
C138        C157   1.460       .  S
C138        H142   1.081       .  S
N139        C150   1.331       .  A
N139       Co149   2.066   1_565  S
C143        N159   1.350       .  A
C143        C155   1.459       .  S
C143        C473   1.473       .  S
Co145      Cl156   2.485       .  S
N146        C157   1.349       .  A
C147        C416   1.475       .  S
Co149      Cl156   2.412       .  S
C157        C488   1.472       .  S
C160        N178   1.361       .  A
C160        C197   1.450       .  S
C160        C380   1.486       .  S
N161        N178   1.334       .  A
N161        N183   1.323       .  A
N161       Co198   2.126       .  S
C162        N187   1.341       .  A
C162        C200   1.460       .  S
C162        H207   1.081       .  S
H163        C204   1.081       .  S
C164        N188   1.335       .  A
C164        C168   1.452       .  S
C164        H193   1.080       .  S
Co165       N183   2.072   1_565  S
Co165       N173   2.081   1_565  S
Co165       N205   2.069       .  S
Co165       N181   2.086       .  S
Co165      Cl209   2.412   1_565  S
N166        C204   1.339       .  A
N166        N173   1.317       .  A
N166       Co167   2.073       .  S
Co167       N170   2.095       .  S
Co167       N187   2.083   1_545  S
Co167       N174   2.085   1_545  S
Co167      Cl209   2.486       .  S
C168        N206   1.353       .  A
C168        C527   1.470       .  S
N169        N176   1.322       .  A
N169        N199   1.316       .  A
N169       Co202   2.066       .  S
N170        N188   1.316       .  A
N170        N206   1.328       .  A
N171        C200   1.349       .  A
N171        N181   1.325       .  A
H172        C197   1.081       .  S
N173        N194   1.323       .  A
N174        N192   1.317       .  A
N174        N179   1.325       .  A
C175        N179   1.350       .  A
C175        C203   1.457       .  S
C175        C509   1.466       .  S
N176        C191   1.354       .  A
N176       Co198   2.119       .  S
C177        N205   1.332       .  A
C177        C180   1.449       .  S
C177        H211   1.082       .  S
C180        N201   1.358       .  A
C180        C347   1.476       .  S
N181        N187   1.318       .  A
N182        C208   1.354       .  A
N182        N184   1.323       .  A
N182       Co198   2.124   1_565  S
N183        C197   1.333       .  A
N184        N212   1.316       .  A
N184       Co202   2.062   1_565  S
H185        C208   1.081       .  S
H186        C203   1.081       .  S
N188       Co202   2.066       .  S
N189        N201   1.332       .  A
N189        N205   1.323       .  A
N189       Co198   2.116   1_565  S
C190        N194   1.349       .  A
C190        C204   1.458       .  S
C190        C635   1.466       .  S
C191        C210   1.476       .  S
C191        H195   1.081       .  S
N192        C203   1.338       .  A
N192       Co202   2.073   1_565  S
C196        N212   1.340       .  A
C196        C208   1.476       .  S
C196        C329   1.477       .  S
Co198      Cl209   2.502       .  S
N199        C210   1.339       .  A
C200        C614   1.471       .  S
Co202      Cl209   2.412       .  S
C210        C362   1.476       .  S
C213        N231   1.352       .  A
C213        C250   1.454       .  S
C213        C740   1.474       .  S
N214        N231   1.329       .  A
N214        N236   1.318       .  A
N214       Co251   2.098       .  S
C215        N240   1.356       .  A
C215        C253   1.478       .  S
C215        H260   1.081       .  S
H216        C257   1.081       .  S
C217        N241   1.332       .  A
C217        C221   1.446       .  S
C217        H246   1.082       .  S
Co218       N236   2.071       .  S
Co218       N226   2.069       .  S
Co218       N258   2.071       .  S
Co218       N234   2.062       .  S
Co218      Cl262   2.411   1_455  S
N219        C257   1.350       .  A
N219        N226   1.323       .  A
N219       Co220   2.114   1_455  S
Co220       N223   2.117       .  S
Co220       N240   2.128   1_655  S
Co220       N227   2.130       .  S
Co220      Cl262   2.500       .  S
C221        N259   1.357       .  A
C221        C437   1.469       .  S
N222        N229   1.317       .  A
N222        N252   1.322       .  A
N222       Co255   2.071       .  S
N223        N241   1.322       .  A
N223        N259   1.332       .  A
N224        C253   1.337       .  A
N224        N234   1.317       .  A
H225        C250   1.081       .  S
N226        N247   1.319       .  A
N227        N245   1.322       .  A
N227        N232   1.334       .  A
C228        N232   1.362       .  A
C228        C256   1.444       .  S
C228        C365   1.476       .  S
N229        C244   1.344       .  A
N229       Co251   2.086   1_655  S
C230        N258   1.334       .  A
C230        C233   1.451       .  S
C230        H264   1.080       .  S
C233        N254   1.355       .  A
C233        C722   1.476       .  S
N234        N240   1.324       .  A
N235        C261   1.348       .  A
N235        N237   1.318       .  A
N235       Co251   2.090   1_655  S
N236        C250   1.337       .  A
N237        N265   1.318       .  A
N237       Co255   2.067       .  S
H238        C261   1.081       .  S
H239        C256   1.082       .  S
N241       Co255   2.065       .  S
N242        N254   1.331       .  A
N242        N258   1.317       .  A
N242       Co251   2.097       .  S
C243        N247   1.341       .  A
C243        C257   1.470       .  S
C243        C452   1.469       .  S
C244        C263   1.458       .  S
C244        H248   1.080       .  S
N245        C256   1.332       .  A
N245       Co255   2.062       .  S
C249        N265   1.343       .  A
C249        C261   1.463       .  S
C249        C581   1.467       .  S
Co251      Cl262   2.486   1_455  S
N252        C263   1.347       .  A
C253        C383   1.477       .  S
Co255      Cl262   2.412       .  S
C263        C599   1.467       .  S
C266        N284   1.362       .  A
C266        C303   1.441       .  S
C266        C419   1.472       .  S
N267        N284   1.333       .  A
N267        N289   1.322       .  A
N267       Co304   2.129       .  S
C268        N293   1.345       .  A
C268        C306   1.461       .  S
C268        H313   1.081       .  S
H269        C310   1.080       .  S
C270        N294   1.334       .  A
C270        C274   1.453       .  S
C270        H299   1.080       .  S
Co271       N289   2.051       .  S
Co271       N279   2.085       .  S
Co271       N311   2.068       .  S
Co271       N287   2.076       .  S
Co271      Cl315   2.410   1_455  S
N272        C310   1.348       .  A
N272        N279   1.317       .  A
N272       Co273   2.096   1_455  S
Co273       N276   2.092       .  S
Co273       N293   2.092   1_655  S
Co273       N280   2.096       .  S
Co273      Cl315   2.487       .  S
C274        N312   1.351       .  A
C274        C560   1.470       .  S
N275        N282   1.323       .  A
N275        N305   1.318       .  A
N275       Co308   2.066       .  S
N276        N294   1.317       .  A
N276        N312   1.328       .  A
N277        C306   1.347       .  A
N277        N287   1.324       .  A
H278        C303   1.082       .  S
N279        N300   1.326       .  A
N280        N298   1.318       .  A
N280        N285   1.330       .  A
C281        N285   1.353       .  A
C281        C309   1.452       .  S
C281        C542   1.474       .  S
N282        C297   1.354       .  A
N282       Co304   2.123   1_655  S
C283        N311   1.331       .  A
C283        C286   1.447       .  S
C283        H317   1.082       .  S
C286        N307   1.360       .  A
C286        C344   1.476       .  S
N287        N293   1.317       .  A
N288        C314   1.354       .  A
N288        N290   1.324       .  A
N288       Co304   2.127   1_655  S
N289        C303   1.327       .  A
N290        N318   1.318       .  A
N290       Co308   2.064       .  S
H291        C314   1.081       .  S
H292        C309   1.080       .  S
N294       Co308   2.067       .  S
N295        N307   1.333       .  A
N295        N311   1.323       .  A
N295       Co304   2.122       .  S
C296        N300   1.349       .  A
C296        C310   1.462       .  S
C296        C707   1.481       .  S
C297        C316   1.476       .  S
C297        H301   1.081       .  S
N298        C309   1.335       .  A
N298       Co308   2.069       .  S
C302        N318   1.339       .  A
C302        C314   1.475       .  S
C302        C326   1.475       .  S
Co304      Cl315   2.500   1_455  S
N305        C316   1.339       .  A
C306        C689   1.473       .  S
Co308      Cl315   2.412       .  S
C316        C401   1.477       .  S
C319        N325   1.342       .  A
C319        C324   1.384       .  A
C319        C320   1.410       .  A
C320        H331   1.082       .  S
C320        C321   1.406       .  A
C321        C330   1.391       .  A
C321        C322   1.383       .  A
C322        N328   1.338       .  A
C322        C323   1.405       .  A
C323        H332   1.082       .  S
C323        C324   1.400       .  A
C324        C327   1.386       .  A
N325        C326   1.359       .  A
N325        H335   1.045       .  S
C326        C327   1.393       .  A
C327        H333   1.082       .  S
N328        C329   1.357       .  A
N328        H336   1.045       .  S
C329        C330   1.397       .  A
C330        H334   1.082       .  S
C337        N343   1.340       .  A
C337        C342   1.384       .  A
C337        C338   1.407       .  A
C338        H349   1.082       .  S
C338        C339   1.403       .  A
C339        C348   1.387       .  A
C339        C340   1.383       .  A
C340        N346   1.340       .  A
C340        C341   1.407       .  A
C341        H350   1.082       .  S
C341        C342   1.403       .  A
C342        C345   1.387       .  A
N343        C344   1.358       .  A
N343        H353   1.045       .  S
C344        C345   1.395       .  A
C345        H351   1.082       .  S
N346        C347   1.358       .  A
N346        H354   1.044       .  S
C347        C348   1.395       .  A
C348        H352   1.082       .  S
C355        N361   1.337       .  A
C355        C360   1.383       .  A
C355        C356   1.405       .  A
C356        H367   1.082       .  S
C356        C357   1.400       .  A
C357        C366   1.385       .  A
C357        C358   1.383       .  A
C358        N364   1.342       .  A
C358        C359   1.410       .  A
C359        H368   1.082       .  S
C359        C360   1.406       .  A
C360        C363   1.391       .  A
N361        C362   1.357       .  A
N361        H371   1.045       .  S
C362        C363   1.397       .  A
C363        H369   1.082       .  S
N364        C365   1.360       .  A
N364        H372   1.045       .  S
C365        C366   1.393       .  A
C366        H370   1.082       .  S
C373        N379   1.341       .  A
C373        C378   1.383       .  A
C373        C374   1.408       .  A
C374        H385   1.082       .  S
C374        C375   1.403       .  A
C375        C384   1.389       .  A
C375        C376   1.383       .  A
C376        N382   1.342       .  A
C376        C377   1.411       .  A
C377        H386   1.082       .  S
C377        C378   1.406       .  A
C378        C381   1.391       .  A
N379        C380   1.359       .  A
N379        H389   1.044       .  S
C380        C381   1.399       .  A
C381        H387   1.082       .  S
N382        C383   1.360       .  A
N382        H390   1.045       .  S
C383        C384   1.394       .  A
C384        H388   1.082       .  S
C391        N397   1.339       .  A
C391        C396   1.383       .  A
C391        C392   1.406       .  A
C392        H403   1.082       .  S
C392        C393   1.402       .  A
C393        C402   1.388       .  A
C393        C394   1.383       .  A
C394        N400   1.341       .  A
C394        C395   1.409       .  A
C395        H404   1.082       .  S
C395        C396   1.404       .  A
C396        C399   1.389       .  A
N397        C398   1.357       .  A
N397        H407   1.044       .  S
C398        C399   1.396       .  A
C399        H405   1.082       .  S
N400        C401   1.359       .  A
N400        H408   1.045       .  S
C401        C402   1.395       .  A
C402        H406   1.082       .  S
C409        N415   1.338       .  A
C409        C414   1.383       .  A
C409        C410   1.405       .  A
C410        H421   1.082       .  S
C410        C411   1.400       .  A
C411        C420   1.386       .  A
C411        C412   1.383       .  A
C412        N418   1.339       .  A
C412        C413   1.408       .  A
C413        H422   1.082       .  S
C413        C414   1.404       .  A
C414        C417   1.389       .  A
N415        C416   1.357       .  A
N415        H425   1.045       .  S
C416        C417   1.396       .  A
C417        H423   1.082       .  S
N418        C419   1.359       .  A
N418        H426   1.045       .  S
C419        C420   1.392       .  A
C420        H424   1.082       .  S
C427        N433   1.340       .  A
C427        C432   1.385       .  A
C427        C428   1.399       .  A
C428        H439   1.083       .  S
C428        C429   1.398       .  A
C429        C438   1.372       .  A
C429        C430   1.384       .  A
C430        N436   1.350       .  A
C430        C431   1.410       .  A
C431        H440   1.082       .  S
C431        C432   1.410       .  A
C432        C435   1.386       .  A
N433        C434   1.353       .  A
N433        H443   1.045       .  S
C434        C435   1.398       .  A
C435        H441   1.082       .  S
N436        C437   1.358       .  A
N436        H444   1.045       .  S
C437        C438   1.391       .  A
C438        H442   1.083       .  S
C445        N451   1.347       .  A
C445        C450   1.384       .  A
C445        C446   1.412       .  A
C446        H457   1.082       .  S
C446        C447   1.409       .  A
C447        C456   1.391       .  A
C447        C448   1.383       .  A
C448        N454   1.338       .  A
C448        C449   1.402       .  A
C449        H458   1.082       .  S
C449        C450   1.399       .  A
C450        C453   1.379       .  A
N451        C452   1.359       .  A
N451        H461   1.045       .  S
C452        C453   1.391       .  A
C453        H459   1.082       .  S
N454        C455   1.355       .  A
N454        H462   1.045       .  S
C455        C456   1.399       .  A
C456        H460   1.082       .  S
C463        N469   1.340       .  A
C463        C468   1.383       .  A
C463        C464   1.398       .  A
C464        H475   1.078       .  S
C464        C465   1.399       .  A
C465        C474   1.375       .  A
C465        C466   1.383       .  A
C466        N472   1.346       .  A
C466        C467   1.408       .  A
C467        H476   1.082       .  S
C467        C468   1.408       .  A
C468        C471   1.384       .  A
N469        C470   1.355       .  A
N469        H479   1.044       .  S
C470        C471   1.398       .  A
C471        H477   1.082       .  S
N472        C473   1.357       .  A
N472        H480   1.045       .  S
C473        C474   1.394       .  A
C474        H478   1.081       .  S
C481        N487   1.346       .  A
C481        C486   1.383       .  A
C481        C482   1.408       .  A
C482        H493   1.082       .  S
C482        C483   1.407       .  A
C483        C492   1.382       .  A
C483        C484   1.383       .  A
C484        N490   1.339       .  A
C484        C485   1.396       .  A
C485        H494   1.077       .  S
C485        C486   1.398       .  A
C486        C489   1.375       .  A
N487        C488   1.357       .  A
N487        H497   1.045       .  S
C488        C489   1.393       .  A
C489        H495   1.081       .  S
N490        C491   1.353       .  A
N490        H498   1.045       .  S
C491        C492   1.397       .  A
C492        H496   1.082       .  S
C499        N505   1.339       .  A
C499        C504   1.384       .  A
C499        C500   1.400       .  A
C500        H511   1.082       .  S
C500        C501   1.398       .  A
C501        C510   1.373       .  A
C501        C502   1.383       .  A
C502        N508   1.344       .  A
C502        C503   1.402       .  A
C503        H512   1.076       .  S
C503        C504   1.404       .  A
C504        C507   1.382       .  A
N505        C506   1.353       .  A
N505        H515   1.044       .  S
C506        C507   1.398       .  A
C507        H513   1.082       .  S
N508        C509   1.355       .  A
N508        H516   1.044       .  S
C509        C510   1.393       .  A
C510        H514   1.082       .  S
C517        N523   1.347       .  A
C517        C522   1.384       .  A
C517        C518   1.405       .  A
C518        H529   1.078       .  S
C518        C519   1.404       .  A
C519        C528   1.383       .  A
C519        C520   1.383       .  A
C520        N526   1.339       .  A
C520        C521   1.401       .  A
C521        H530   1.083       .  S
C521        C522   1.400       .  A
C522        C525   1.374       .  A
N523        C524   1.357       .  A
N523        H533   1.045       .  S
C524        C525   1.394       .  A
C525        H531   1.082       .  S
N526        C527   1.355       .  A
N526        H534   1.044       .  S
C527        C528   1.396       .  A
C528        H532   1.082       .  S
C535        N541   1.338       .  A
C535        C540   1.384       .  A
C535        C536   1.399       .  A
C536        H547   1.083       .  S
C536        C537   1.398       .  A
C537        C546   1.374       .  A
C537        C538   1.385       .  A
C538        N544   1.348       .  A
C538        C539   1.411       .  A
C539        H548   1.082       .  S
C539        C540   1.409       .  A
C540        C543   1.387       .  A
N541        C542   1.354       .  A
N541        H551   1.044       .  S
C542        C543   1.399       .  A
C543        H549   1.082       .  S
N544        C545   1.358       .  A
N544        H552   1.045       .  S
C545        C546   1.391       .  A
C546        H550   1.083       .  S
C553        N559   1.349       .  A
C553        C558   1.384       .  A
C553        C554   1.407       .  A
C554        H565   1.083       .  S
C554        C555   1.409       .  A
C555        C564   1.383       .  A
C555        C556   1.387       .  A
C556        N562   1.339       .  A
C556        C557   1.396       .  A
C557        H566   1.083       .  S
C557        C558   1.395       .  A
C558        C561   1.368       .  A
N559        C560   1.358       .  A
N559        H569   1.045       .  S
C560        C561   1.391       .  A
C561        H567   1.082       .  S
N562        C563   1.350       .  A
N562        H570   1.045       .  S
C563        C564   1.398       .  A
C564        H568   1.083       .  S
C571        N577   1.338       .  A
C571        C576   1.386       .  A
C571        C572   1.397       .  A
C572        H583   1.083       .  S
C572        C573   1.396       .  A
C573        C582   1.368       .  A
C573        C574   1.385       .  A
C574        N580   1.348       .  A
C574        C575   1.408       .  A
C575        H584   1.082       .  S
C575        C576   1.409       .  A
C576        C579   1.385       .  A
N577        C578   1.351       .  A
N577        H587   1.045       .  S
C578        C579   1.398       .  A
C579        H585   1.082       .  S
N580        C581   1.357       .  A
N580        H588   1.045       .  S
C581        C582   1.391       .  A
C582        H586   1.083       .  S
C589        N595   1.340       .  A
C589        C594   1.386       .  A
C589        C590   1.400       .  A
C590        H601   1.083       .  S
C590        C591   1.398       .  A
C591        C600   1.374       .  A
C591        C592   1.384       .  A
C592        N598   1.345       .  A
C592        C593   1.405       .  A
C593        H602   1.083       .  S
C593        C594   1.406       .  A
C594        C597   1.382       .  A
N595        C596   1.353       .  A
N595        H605   1.045       .  S
C596        C597   1.396       .  A
C597        H603   1.083       .  S
N598        C599   1.356       .  A
N598        H606   1.045       .  S
C599        C600   1.392       .  A
C600        H604   1.083       .  S
C607        N613   1.346       .  A
C607        C612   1.383       .  A
C607        C608   1.408       .  A
C608        H619   1.082       .  S
C608        C609   1.408       .  A
C609        C618   1.383       .  A
C609        C610   1.383       .  A
C610        N616   1.339       .  A
C610        C611   1.395       .  A
C611        H620   1.075       .  S
C611        C612   1.396       .  A
C612        C615   1.373       .  A
N613        C614   1.358       .  A
N613        H623   1.045       .  S
C614        C615   1.392       .  A
C615        H621   1.080       .  S
N616        C617   1.352       .  A
N616        H624   1.045       .  S
C617        C618   1.399       .  A
C618        H622   1.083       .  S
C625        N631   1.345       .  A
C625        C630   1.384       .  A
C625        C626   1.405       .  A
C626        H637   1.082       .  S
C626        C627   1.404       .  A
C627        C636   1.379       .  A
C627        C628   1.384       .  A
C628        N634   1.340       .  A
C628        C629   1.398       .  A
C629        H638   1.077       .  S
C629        C630   1.398       .  A
C630        C633   1.374       .  A
N631        C632   1.356       .  A
N631        H641   1.045       .  S
C632        C633   1.394       .  A
C633        H639   1.082       .  S
N634        C635   1.354       .  A
N634        H642   1.044       .  S
C635        C636   1.395       .  A
C636        H640   1.082       .  S
C643        N649   1.339       .  A
C643        C648   1.385       .  A
C643        C644   1.398       .  A
C644        H655   1.083       .  S
C644        C645   1.397       .  A
C645        C654   1.369       .  A
C645        C646   1.384       .  A
C646        N652   1.346       .  A
C646        C647   1.404       .  A
C647        H656   1.079       .  S
C647        C648   1.405       .  A
C648        C651   1.381       .  A
N649        C650   1.353       .  A
N649        H659   1.044       .  S
C650        C651   1.398       .  A
C651        H657   1.083       .  S
N652        C653   1.355       .  A
N652        H660   1.044       .  S
C653        C654   1.392       .  A
C654        H658   1.082       .  S
C661        N667   1.344       .  A
C661        C666   1.383       .  A
C661        C662   1.402       .  A
C662        H673   1.077       .  S
C662        C663   1.404       .  A
C663        C672   1.381       .  A
C663        C664   1.384       .  A
C664        N670   1.341       .  A
C664        C665   1.400       .  A
C665        H674   1.082       .  S
C665        C666   1.399       .  A
C666        C669   1.372       .  A
N667        C668   1.355       .  A
N667        H677   1.044       .  S
C668        C669   1.393       .  A
C669        H675   1.082       .  S
N670        C671   1.354       .  A
N670        H678   1.044       .  S
C671        C672   1.397       .  A
C672        H676   1.082       .  S
C679        N685   1.348       .  A
C679        C684   1.385       .  A
C679        C680   1.407       .  A
C680        H691   1.082       .  S
C680        C681   1.406       .  A
C681        C690   1.382       .  A
C681        C682   1.384       .  A
C682        N688   1.343       .  A
C682        C683   1.401       .  A
C683        H692   1.083       .  S
C683        C684   1.401       .  A
C684        C687   1.374       .  A
N685        C686   1.356       .  A
N685        H695   1.045       .  S
C686        C687   1.393       .  A
C687        H693   1.083       .  S
N688        C689   1.355       .  A
N688        H696   1.045       .  S
C689        C690   1.397       .  A
C690        H694   1.082       .  S
C697        N703   1.350       .  A
C697        C702   1.385       .  A
C697        C698   1.410       .  A
C698        H709   1.082       .  S
C698        C699   1.409       .  A
C699        C708   1.386       .  A
C699        C700   1.384       .  A
C700        N706   1.344       .  A
C700        C701   1.403       .  A
C701        H710   1.083       .  S
C701        C702   1.403       .  A
C702        C705   1.377       .  A
N703        C704   1.358       .  A
N703        H713   1.044       .  S
C704        C705   1.394       .  A
C705        H711   1.083       .  S
N706        C707   1.356       .  A
N706        H714   1.045       .  S
C707        C708   1.399       .  A
C708        H712   1.082       .  S
C715        N721   1.351       .  A
C715        C720   1.384       .  A
C715        C716   1.410       .  A
C716        H727   1.082       .  S
C716        C717   1.411       .  A
C717        C726   1.387       .  A
C717        C718   1.385       .  A
C718        N724   1.340       .  A
C718        C719   1.400       .  A
C719        H728   1.083       .  S
C719        C720   1.398       .  A
C720        C723   1.371       .  A
N721        C722   1.359       .  A
N721        H731   1.045       .  S
C722        C723   1.393       .  A
C723        H729   1.082       .  S
N724        C725   1.354       .  A
N724        H732   1.045       .  S
C725        C726   1.398       .  A
C726        H730   1.082       .  S
C733        N739   1.340       .  A
C733        C738   1.384       .  A
C733        C734   1.399       .  A
C734        H745   1.083       .  S
C734        C735   1.398       .  A
C735        C744   1.374       .  A
C735        C736   1.385       .  A
C736        N742   1.348       .  A
C736        C737   1.410       .  A
C737        H746   1.082       .  S
C737        C738   1.408       .  A
C738        C741   1.386       .  A
N739        C740   1.354       .  A
N739        H749   1.044       .  S
C740        C741   1.399       .  A
C741        H747   1.082       .  S
N742        C743   1.358       .  A
N742        H750   1.045       .  S
C743        C744   1.390       .  A
C744        H748   1.083       .  S
