geometry optimzed in LAMMPS
_audit_creation_date              2020-11-30 
_audit_creation_method            'lammps2cif' 
_symmetry_space_group_name_H-M    'P1' 
_symmetry_Int_Tables_number       1 
_symmetry_cell_setting            triclinic 
loop_ 
_symmetry_equiv_pos_as_xyz 
  x,y,z 
_cell_length_a                    27.27336604 
_cell_length_b                    27.075336472252367 
_cell_length_c                    27.29952635550224 
_cell_angle_alpha                 89.60477709148142 
_cell_angle_beta                  89.70650581607258 
_cell_angle_gamma                 90.03451366195159 
loop_ 
_atom_site_label 
_atom_site_type_symbol 
_atom_site_fract_x 
_atom_site_fract_y 
_atom_site_fract_z 
_atom_site_charge 
O1          O  0.18397781  0.44816607  0.05425049    -0.80600
O2          O  0.17872326  0.54254627  0.94533669    -0.80600
O3          O  0.24531818  0.55540208  0.09940141    -0.80600
O4          O  0.25175520  0.44303818  0.89995687    -0.80600
O5          O  0.18135262  0.55203049  0.05095422    -0.80700
O6          O  0.18790253  0.43955771  0.94898583    -0.80600
O7          O  0.24028235  0.53632408  0.89269914    -0.80600
O8          O  0.24448160  0.46070267  0.10628184    -0.80600
C9          C  0.19941196  0.45167060  0.09814105     1.09100
C10         C  0.19464228  0.54199583  0.90129754     1.09000
C11         C  0.19980854  0.56187633  0.09236266     1.09100
C12         C  0.20695225  0.43249060  0.90713038     1.09000
O13         O  0.28587294  0.39434320  0.96218077    -0.80600
O14         O  0.27263234  0.60845124  0.03590360    -0.80700
O15         O  0.33889247  0.45130596  0.05546839    -0.80600
O16         O  0.33309934  0.55603855  0.94433243    -0.80600
O17         O  0.26647003  0.60102189  0.94274346    -0.80700
O18         O  0.27730553  0.39939214  0.05628048    -0.80600
O19         O  0.34233390  0.45242898  0.95446578    -0.80600
O20         O  0.33584280  0.55803288  0.04580835    -0.80600
Co21       Co  0.23350284  0.42706206  0.00467711     1.51500
Co22       Co  0.22530539  0.56899240  0.99461948     1.51700
Co23       Co  0.29098206  0.50560463  0.06992140     1.51600
Co24       Co  0.29158850  0.49760836  0.92970354     1.51500
O25         O  0.26007114  0.49985098  0.99984713    -1.42500
C26         C  0.32984158  0.40751251  0.95182987     1.09000
C27         C  0.31788808  0.60150334  0.04542872     1.09100
C28         C  0.32276769  0.40739911  0.06044468     1.09000
C29         C  0.31213723  0.59670301  0.93517826     1.09000
O30         O  0.75583389  0.44542564  0.10442631    -0.80600
O31         O  0.75662572  0.54698926  0.89692340    -0.80600
O32         O  0.82074767  0.44506346  0.94933731    -0.80600
O33         O  0.82605835  0.54431283  0.05067191    -0.80600
O34         O  0.75968820  0.45261574  0.89689577    -0.80700
O35         O  0.76500026  0.54011298  0.10412526    -0.80600
O36         O  0.82175044  0.54817286  0.94397195    -0.80600
O37         O  0.81875941  0.44132956  0.05437507    -0.80600
C38         C  0.80071416  0.43534404  0.09691002     1.09100
C39         C  0.80214457  0.55496257  0.90222402     1.09000
C40         C  0.80510230  0.44589974  0.90547497     1.09100
C41         C  0.81053878  0.54548038  0.09481508     1.09000
O42         O  0.67158433  0.55460789  0.05436582    -0.80600
O43         O  0.66592349  0.44408816  0.94886036    -0.80700
O44         O  0.72211351  0.39301347  0.04526575    -0.80600
O45         O  0.73009278  0.60202856  0.95697539    -0.80600
O46         O  0.66635380  0.55187401  0.95115655    -0.80700
O47         O  0.66374622  0.44924327  0.05133189    -0.80600
O48         O  0.73686044  0.60186007  0.05034656    -0.80600
O49         O  0.72844081  0.39311320  0.95146266    -0.80600
Co50       Co  0.71422018  0.49759275  0.07165232     1.51500
Co51       Co  0.71234836  0.49849853  0.93060135     1.51700
Co52       Co  0.77257800  0.42496829  0.00033137     1.51600
Co53       Co  0.77825314  0.56686120  0.00033646     1.51500
O54         O  0.74427886  0.49706275  0.00067630    -1.42500
C55         C  0.69124137  0.59691736  0.05842757     1.09000
C56         C  0.68302949  0.40050217  0.94514867     1.09100
C57         C  0.67770091  0.40465156  0.05480173     1.09000
C58         C  0.68451996  0.59533080  0.94916062     1.09000
O59         O  0.44994666  0.06187122  0.33603668    -0.80600
O60         O  0.54502341  0.94860244  0.34400156    -0.80600
O61         O  0.39070784  0.96749540  0.27785215    -0.80600
O62         O  0.60814453  0.03820597  0.27932174    -0.80600
O63         O  0.44000352  0.95970701  0.34124039    -0.80700
O64         O  0.55526186  0.05127277  0.33931379    -0.80600
O65         O  0.59761671  0.94460827  0.28277642    -0.80600
O66         O  0.40148817  0.06139171  0.27179933    -0.80600
C67         C  0.40831762  0.07006943  0.31696397     1.09100
C68         C  0.58761795  0.93857099  0.32795619     1.09000
C69         C  0.39686997  0.96050116  0.32360830     1.09100
C70         C  0.59924082  0.04986353  0.32348281     1.09000
O71         O  0.55840402  0.10002920  0.24529705    -0.80600
O72         O  0.44174920  0.90287252  0.25217109    -0.80700
O73         O  0.45731306  0.05632240  0.18132532    -0.80600
O74         O  0.54735306  0.94190090  0.18963904    -0.80600
O75         O  0.53556995  0.89230581  0.25300765    -0.80700
O76         O  0.46553397  0.11036218  0.24082276    -0.80600
O77         O  0.55893522  0.04699975  0.18466719    -0.80600
O78         O  0.44508587  0.95032213  0.18673969    -0.80600
Co79       Co  0.50632026  0.07390080  0.29058733     1.51500
Co80       Co  0.49147964  0.93280681  0.29708163     1.51700
Co81       Co  0.43051537  0.00805327  0.22980022     1.51600
Co82       Co  0.57102184  0.99373782  0.23410692     1.51500
O83         O  0.49983468  0.00210140  0.26288322    -1.42500
C84         C  0.56709471  0.09014207  0.20064685     1.09000
C85         C  0.43769162  0.90803748  0.20608344     1.09100
C86         C  0.45959020  0.10094058  0.19563366     1.09000
C87         C  0.54663265  0.89866342  0.20797660     1.09000
O88         O  0.39793266  0.05297459  0.72176743    -0.80600
O89         O  0.59589519  0.94567858  0.71766598    -0.80600
O90         O  0.55585393  0.04792850  0.65946118    -0.80600
O91         O  0.43580049  0.95086345  0.66561637    -0.80600
O92         O  0.60516272  0.04041895  0.72250389    -0.80700
O93         O  0.38856344  0.95906116  0.73018134    -0.80600
O94         O  0.53997147  0.94378273  0.65927813    -0.80600
O95         O  0.44908529  0.05318591  0.65863941    -0.80600
C96         C  0.40571288  0.05705983  0.67593210     1.09100
C97         C  0.58370482  0.93679826  0.67343181     1.09000
C98         C  0.59887075  0.04919261  0.67740731     1.09100
C99         C  0.39378786  0.94763152  0.68532977     1.09000
O100        O  0.44604496  0.95657883  0.82042072    -0.80600
O101        O  0.55339874  0.04921283  0.81379574    -0.80700
O102        O  0.45711771  0.10885522  0.74791081    -0.80600
O103        O  0.53678473  0.89156188  0.75200851    -0.80600
O104        O  0.54637205  0.94270692  0.81326721    -0.80700
O105        O  0.45210045  0.06131750  0.81318714    -0.80600
O106        O  0.44385137  0.90098212  0.76172895    -0.80600
O107        O  0.55085264  0.10132685  0.75122613    -0.80600
Co108      Co  0.42807259  0.00704898  0.77092031     1.51500
Co109      Co  0.56841447  0.99481509  0.76675280     1.51700
Co110      Co  0.50279251  0.07075646  0.70462553     1.51600
Co111      Co  0.48957740  0.92883161  0.70962118     1.51500
O112        O  0.49739391  0.00046770  0.73776835    -1.42500
C113        C  0.43805238  0.91275820  0.80658440     1.09000
C114        C  0.55592218  0.09328667  0.79693138     1.09100
C115        C  0.44859814  0.10366300  0.79342528     1.09000
C116        C  0.54648289  0.89901372  0.79666726     1.09000
O117        O  0.05048897  0.34043280  0.44595200    -0.80600
O118        O  0.96040302  0.34051670  0.56069595    -0.80600
O119        O  0.94649319  0.28043170  0.40400321    -0.80600
O120        O  0.06193803  0.27262206  0.60022662    -0.80600
O121        O  0.94906584  0.34280259  0.45534376    -0.80700
O122        O  0.06163227  0.33696624  0.55045059    -0.80600
O123        O  0.96856347  0.27670433  0.61075938    -0.80600
O124        O  0.03912190  0.27962206  0.39395094    -0.80600
C125        C  0.04836587  0.32486819  0.40218335     1.09100
C126        C  0.96087922  0.32261320  0.60395180     1.09000
C127        C  0.93908003  0.32574479  0.41327627     1.09100
C128        C  0.07043483  0.31817280  0.59222922     1.09000
O129        O  0.11067890  0.24232676  0.53597787    -0.80600
O130        O  0.89530451  0.25055953  0.46665869    -0.80700
O131        O  0.04886141  0.18405198  0.44419108    -0.80600
O132        O  0.95265684  0.18469781  0.55766899    -0.80600
O133        O  0.90495277  0.24991221  0.56023519    -0.80700
O134        O  0.10098797  0.24611386  0.44298500    -0.80600
O135        O  0.05769370  0.18134514  0.54541693    -0.80600
O136        O  0.94379570  0.18657750  0.45514780    -0.80600
Co137      Co  0.07413705  0.29150803  0.49471251     1.51500
Co138      Co  0.93436022  0.29555830  0.50993253     1.51700
Co139      Co  0.99546398  0.23262195  0.43140858     1.51600
Co140      Co  0.00942632  0.22914594  0.57177540     1.51500
O141        O  0.00328994  0.26212318  0.50201661    -1.42500
C142        C  0.10173260  0.19672452  0.54288771     1.09000
C143        C  0.90100442  0.20526379  0.45575839     1.09100
C144        C  0.09135475  0.20092362  0.43485355     1.09000
C145        C  0.91027818  0.20346809  0.56363966     1.09000
O146        O  0.05662825  0.73300699  0.39874562    -0.80600
O147        O  0.94524344  0.71412844  0.59692450    -0.80600
O148        O  0.05290473  0.66527924  0.55441158    -0.80600
O149        O  0.96074817  0.66000238  0.43856276    -0.80600
O150        O  0.03771345  0.72579468  0.60566380    -0.80700
O151        O  0.96349543  0.72475166  0.38936054    -0.80600
O152        O  0.95202007  0.65405647  0.54323247    -0.80600
O153        O  0.06139133  0.66878776  0.44871881    -0.80600
C154        C  0.06792605  0.68802003  0.40654762     1.09100
C155        C  0.94211820  0.66846604  0.58632749     1.09000
C156        C  0.05052689  0.68136757  0.59808326     1.09100
C157        C  0.95916129  0.67831178  0.39559485     1.09000
O158        O  0.94373130  0.81485630  0.44503729    -0.80600
O159        O  0.03816100  0.82102805  0.55561154    -0.80700
O160        O  0.10499337  0.76609242  0.46112667    -0.80600
O161        O  0.88986222  0.74141846  0.53685626    -0.80600
O162        O  0.93295154  0.80920201  0.54669967    -0.80700
O163        O  0.04926069  0.82442508  0.45365918    -0.80600
O164        O  0.89921942  0.74704380  0.44282851    -0.80600
O165        O  0.09557134  0.76362376  0.55408668    -0.80600
Co166      Co  0.00256630  0.77385093  0.42862655     1.51500
Co167      Co  0.98913159  0.76774051  0.56915812     1.51700
Co168      Co  0.07176950  0.71538505  0.50390034     1.51600
Co169      Co  0.93231050  0.70165114  0.49098359     1.51500
O170        O  0.99896262  0.73975740  0.49814612    -1.42500
C171        C  0.90283236  0.79362885  0.43746703     1.09000
C172        C  0.08222933  0.80769145  0.56318593     1.09100
C173        C  0.09409457  0.81130623  0.45484628     1.09000
C174        C  0.89184106  0.78698856  0.54778230     1.09000
C175        C  0.73393084  0.95131288  0.57569784    -0.18300
C176        C  0.78065669  0.93240390  0.56523517    -0.20500
C177        C  0.79105958  0.88214543  0.57279686     0.20200
C178        C  0.75422579  0.85123157  0.59291112    -0.03400
C179        C  0.70830487  0.87107021  0.60676534    -0.06400
C180        C  0.69784268  0.92122577  0.59750425     0.20500
C181        C  0.67324610  0.84092567  0.63079007     0.18600
C182        C  0.68319006  0.79061304  0.63810909    -0.17900
C183        C  0.72757607  0.77043960  0.62202709    -0.20100
C184        C  0.76347766  0.80056898  0.59998455     0.20100
C185        C  0.80840498  0.78084690  0.58486298    -0.33200
C186        C  0.84571285  0.81098249  0.56483563     0.00800
C187        C  0.83725561  0.86210241  0.56030532    -0.24500
C188        C  0.65255239  0.94086161  0.61271600    -0.29100
C189        C  0.62026385  0.91256068  0.64163572     0.06500
C190        C  0.63002705  0.86218927  0.64918350    -0.27700
H191        H  0.72659942  0.98992648  0.56823400     0.11200
H192        H  0.80850731  0.95704494  0.55071798     0.12300
H193        H  0.65666638  0.76688955  0.65630895     0.11400
H194        H  0.73417066  0.73136192  0.62761881     0.10700
H195        H  0.81439816  0.74154668  0.58909982     0.16000
H196        H  0.86583399  0.88582066  0.54566951     0.12000
H197        H  0.64376190  0.97884609  0.60469186     0.14800
H198        H  0.60506918  0.84019145  0.67141609     0.14600
C199        C  0.21591836  0.80948224  0.67797588    -0.18300
C200        C  0.26276092  0.82512401  0.69087831    -0.20500
C201        C  0.28403639  0.86627925  0.66778449     0.20200
C202        C  0.25856987  0.89120923  0.63017554    -0.03400
C203        C  0.21086425  0.87562023  0.61731097    -0.06400
C204        C  0.18973141  0.83454377  0.64145757     0.20500
C205        C  0.18482865  0.90021512  0.57974051     0.18600
C206        C  0.20722521  0.94037570  0.55542521    -0.17900
C207        C  0.25484046  0.95560788  0.56794516    -0.20100
C208        C  0.28092154  0.93130170  0.60536085     0.20100
C209        C  0.32825962  0.94692647  0.61952405    -0.33200
C210        C  0.35152886  0.92482445  0.66013955     0.00800
C211        C  0.32985783  0.88354327  0.68270042    -0.24500
C212        C  0.14399502  0.81715716  0.62679858    -0.29100
C213        C  0.11899256  0.83911600  0.58751322     0.06500
C214        C  0.13826040  0.88226986  0.56555257    -0.27700
H215        H  0.20039556  0.77733544  0.69618350     0.11200
H216        H  0.28256709  0.80472375  0.71858771     0.12300
H217        H  0.18824281  0.95951700  0.52615581     0.11400
H218        H  0.27113718  0.98662633  0.54854205     0.10700
H219        H  0.34552202  0.97782178  0.60092190     0.16000
H220        H  0.34829582  0.86563485  0.71305244     0.12000
H221        H  0.12934448  0.78374742  0.64355508     0.14800
H222        H  0.11930386  0.89910405  0.53493064     0.14600
C223        C  0.82193423  0.06040724  0.63908446    -0.18300
C224        C  0.77770331  0.03964379  0.65556957    -0.20500
C225        C  0.73262374  0.06153155  0.64338628     0.20200
C226        C  0.73183868  0.10393595  0.61340239    -0.03400
C227        C  0.77651039  0.12601495  0.59852911    -0.06400
C228        C  0.82193434  0.10423888  0.61132925     0.20500
C229        C  0.77564417  0.17112547  0.57283764     0.18600
C230        C  0.73061711  0.19250211  0.55986954    -0.17900
C231        C  0.68642679  0.16947476  0.57257606    -0.20100
C232        C  0.68648931  0.12565352  0.60020124     0.20100
C233        C  0.64219637  0.10478073  0.61715727    -0.33200
C234        C  0.64299999  0.06420508  0.64932157     0.00800
C235        C  0.68841555  0.04281590  0.66208037    -0.24500
C236        C  0.86630362  0.12770387  0.59770066    -0.29100
C237        C  0.86537766  0.17388317  0.57382801     0.06500
C238        C  0.81973395  0.19514365  0.56202177    -0.27700
H239        H  0.85617511  0.04299819  0.64931557     0.11200
H240        H  0.77874657  0.00660659  0.67816943     0.12300
H241        H  0.72958822  0.22746040  0.54041023     0.11400
H242        H  0.65220109  0.18692213  0.56233730     0.10700
H243        H  0.60754802  0.12231712  0.60851123     0.16000
H244        H  0.68923811  0.01171211  0.68732291     0.12000
H245        H  0.90114914  0.11145114  0.60781392     0.14800
H246        H  0.81838571  0.23116454  0.54460401     0.14600
C247        C  0.32146543  0.14401152  0.53938329    -0.18300
C248        C  0.27784692  0.16407474  0.52108230    -0.20500
C249        C  0.23251119  0.15163662  0.54253275     0.20200
C250        C  0.23063895  0.11647795  0.58068425    -0.03400
C251        C  0.27463279  0.09733967  0.59997316    -0.06400
C252        C  0.32047092  0.11181858  0.57990513     0.20500
C253        C  0.27274464  0.06598315  0.64119144     0.18600
C254        C  0.22734106  0.05081539  0.66047115    -0.17900
C255        C  0.18375222  0.06877460  0.64058834    -0.20100
C256        C  0.18500127  0.10278291  0.60168781     0.20100
C257        C  0.14177106  0.12570511  0.58566075    -0.33200
C258        C  0.14407141  0.16384965  0.55081498     0.00800
C259        C  0.18935642  0.17575467  0.52853486    -0.24500
C260        C  0.36424781  0.09586989  0.60232962    -0.29100
C261        C  0.36216158  0.06732458  0.64546517     0.06500
C262        C  0.31621599  0.05205322  0.66395335    -0.27700
H263        H  0.35606208  0.15519973  0.52307520     0.11200
H264        H  0.27966578  0.19034812  0.49100115     0.12300
H265        H  0.22557991  0.02603062  0.69176951     0.11400
H266        H  0.14916365  0.05765562  0.65696508     0.10700
H267        H  0.10707815  0.11688167  0.60321631     0.16000
H268        H  0.19115965  0.20501507  0.50124952     0.12000
H269        H  0.39944033  0.10817589  0.58821858     0.14800
H270        H  0.31419528  0.02948682  0.69688147     0.14600
C271        C  0.78058892  0.93108254  0.44387308    -0.18300
C272        C  0.73265867  0.94781251  0.43480631    -0.20500
C273        C  0.70065586  0.92039505  0.40525363     0.20200
C274        C  0.71709595  0.87513751  0.38569380    -0.03400
C275        C  0.76477288  0.85754992  0.39623537    -0.06400
C276        C  0.79690632  0.88555516  0.42551029     0.20500
C277        C  0.78044016  0.81210373  0.37680547     0.18600
C278        C  0.74924554  0.78513376  0.34629045    -0.17900
C279        C  0.70271119  0.80304872  0.33492479    -0.20100
C280        C  0.68635338  0.84788097  0.35443418     0.20100
C281        C  0.64085473  0.86711855  0.34081887    -0.33200
C282        C  0.62511006  0.91324591  0.35779517     0.00800
C283        C  0.65384522  0.93860317  0.39222655    -0.24500
C284        C  0.84422552  0.86698722  0.43632488    -0.29100
C285        C  0.85850491  0.81998560  0.41957597     0.06500
C286        C  0.82671904  0.79373082  0.38877513    -0.27700
H287        H  0.80501280  0.95390592  0.46509705     0.11200
H288        H  0.72117623  0.98298381  0.44967636     0.12300
H289        H  0.76096816  0.75024656  0.33095346     0.11400
H290        H  0.67959196  0.78195426  0.31058050     0.10700
H291        H  0.61897015  0.84778261  0.31393688     0.16000
H292        H  0.64167429  0.97412370  0.40556392     0.12000
H293        H  0.86880273  0.88783672  0.45933086     0.14800
H294        H  0.83773188  0.75796435  0.37482407     0.14600
C295        C  0.21723140  0.96686847  0.34221880    -0.18300
C296        C  0.17381483  0.94683910  0.36146626    -0.20500
C297        C  0.17544376  0.91068596  0.39850047     0.20200
C298        C  0.22133278  0.89711478  0.41848126    -0.03400
C299        C  0.26513330  0.91798745  0.39962996    -0.06400
C300        C  0.26300659  0.95146468  0.36002051     0.20500
C301        C  0.31110303  0.90311650  0.41845256     0.18600
C302        C  0.31256391  0.86929799  0.45761076    -0.17900
C303        C  0.26926882  0.84792410  0.47563198    -0.20100
C304        C  0.22375248  0.86043261  0.45515567     0.20100
C305        C  0.18105462  0.83491159  0.46871056    -0.33200
C306        C  0.13548046  0.84617484  0.44712561     0.00800
C307        C  0.13252172  0.88571528  0.41368674    -0.24500
C308        C  0.30660180  0.96698484  0.33727150    -0.29100
C309        C  0.35260657  0.95029872  0.35396852     0.06500
C310        C  0.35466538  0.92007922  0.39598815    -0.27700
H311        H  0.21505044  0.99329503  0.31232501     0.11200
H312        H  0.13906654  0.95815707  0.34597256     0.12300
H313        H  0.34732935  0.85783969  0.47297594     0.11400
H314        H  0.27152594  0.82043659  0.50457247     0.10700
H315        H  0.18353838  0.80488004  0.49508129     0.16000
H316        H  0.09769941  0.89438728  0.39672634     0.12000
H317        H  0.30468725  0.99113692  0.30548495     0.14800
H318        H  0.38985909  0.90709004  0.40908224     0.14600
C319        C  0.81774647  0.06022525  0.38153575    -0.18300
C320        C  0.77510385  0.03900452  0.36246066    -0.20500
C321        C  0.72956481  0.06270884  0.36766019     0.20200
C322        C  0.72677004  0.10792396  0.39261981    -0.03400
C323        C  0.77004567  0.13033438  0.40987932    -0.06400
C324        C  0.81584354  0.10633128  0.40466907     0.20500
C325        C  0.76760329  0.17759852  0.43070370     0.18600
C326        C  0.72218161  0.20139959  0.43578929    -0.17900
C327        C  0.67911805  0.17830594  0.42068055    -0.20100
C328        C  0.68099396  0.13181203  0.39853993     0.20100
C329        C  0.63825978  0.10998799  0.38005287    -0.33200
C330        C  0.64121066  0.06621262  0.35311149     0.00800
C331        C  0.68704838  0.04303584  0.34676560    -0.24500
C332        C  0.85887234  0.12956021  0.42140968    -0.29100
C333        C  0.85657700  0.17727494  0.44135389     0.06500
C334        C  0.81068481  0.20096936  0.44508742    -0.27700
H335        H  0.85238190  0.04116117  0.37707361     0.11200
H336        H  0.77772928  0.00401750  0.34358942     0.12300
H337        H  0.71995825  0.23802404  0.45137215     0.11400
H338        H  0.64450827  0.19744230  0.42503722     0.10700
H339        H  0.60339159  0.12893711  0.38331077     0.16000
H340        H  0.68965030  0.00997138  0.32471874     0.12000
H341        H  0.89403247  0.11135794  0.41740012     0.14800
H342        H  0.80818484  0.23820708  0.45915243     0.14600
C343        C  0.22873782  0.20401852  0.32204899    -0.18300
C344        C  0.27626628  0.18958897  0.30982769    -0.20500
C345        C  0.29835771  0.14976464  0.33420217     0.20200
C346        C  0.27233943  0.12379299  0.37103190    -0.03400
C347        C  0.22372708  0.13768293  0.38260857    -0.06400
C348        C  0.20237919  0.17846695  0.35841927     0.20500
C349        C  0.19689981  0.11162079  0.41891765     0.18600
C350        C  0.21927185  0.07150964  0.44302902    -0.17900
C351        C  0.26783247  0.05805642  0.43190865    -0.20100
C352        C  0.29482879  0.08400874  0.39598280     0.20100
C353        C  0.34304838  0.06988874  0.38296649    -0.33200
C354        C  0.36732724  0.09349480  0.34360399     0.00800
C355        C  0.34533371  0.13434208  0.32078633    -0.24500
C356        C  0.15603679  0.19486882  0.37270290    -0.29100
C357        C  0.13036386  0.17162125  0.41108767     0.06500
C358        C  0.14947578  0.12812425  0.43220784    -0.27700
H359        H  0.21270061  0.23544572  0.30328353     0.11200
H360        H  0.29582751  0.20968787  0.28135607     0.12300
H361        H  0.19956225  0.05113577  0.47119781     0.11400
H362        H  0.28414743  0.02709462  0.45117720     0.10700
H363        H  0.36005271  0.03853628  0.40086130     0.16000
H364        H  0.36395792  0.15246381  0.29036344     0.12000
H365        H  0.14115392  0.22816502  0.35614852     0.14800
H366        H  0.12974503  0.11008997  0.46187912     0.14600
C367        C  0.65667335  0.82081362  0.08690114    -0.18300
C368        C  0.67815216  0.77816838  0.06770731    -0.20500
C369        C  0.65954364  0.73127779  0.07993933     0.20200
C370        C  0.61862100  0.72716081  0.11128408    -0.03400
C371        C  0.59837225  0.77009294  0.13243269    -0.06400
C372        C  0.61725574  0.81719897  0.11993462     0.20500
C373        C  0.56091907  0.76565945  0.16785339     0.18600
C374        C  0.54218660  0.71875911  0.17979820    -0.17900
C375        C  0.56048216  0.67643803  0.15693241    -0.20100
C376        C  0.59941439  0.68003926  0.12331586     0.20100
C377        C  0.62095992  0.63734720  0.10331708    -0.33200
C378        C  0.66329193  0.64119292  0.07397024     0.00800
C379        C  0.68238129  0.68838611  0.06292936    -0.24500
C380        C  0.59773636  0.85960339  0.14218601    -0.29100
C381        C  0.56184675  0.85518375  0.17905178     0.06500
C382        C  0.54428236  0.80796843  0.19209091    -0.27700
H383        H  0.67188800  0.85653549  0.07709802     0.11200
H384        H  0.70965611  0.78184568  0.04364282     0.12300
H385        H  0.51388721  0.71468370  0.20741707     0.11400
H386        H  0.54542191  0.64071614  0.16695667     0.10700
H387        H  0.60667957  0.60118278  0.11296839     0.16000
H388        H  0.71598193  0.69181785  0.04194512     0.12000
H389        H  0.61256335  0.89568336  0.13302529     0.14800
H390        H  0.51844120  0.80398366  0.22200763     0.14600
C391        C  0.57124235  0.25723977  0.04380661    -0.18300
C392        C  0.56150621  0.20913555  0.06110982    -0.20500
C393        C  0.58161249  0.19226296  0.10555529     0.20200
C394        C  0.61113730  0.22481527  0.13297251    -0.03400
C395        C  0.62024823  0.27335142  0.11597140    -0.06400
C396        C  0.60104481  0.28955951  0.07074408     0.20500
C397        C  0.64912326  0.30557594  0.14423261     0.18600
C398        C  0.66727988  0.28997023  0.18956826    -0.17900
C399        C  0.65909470  0.24188126  0.20599088    -0.20100
C400        C  0.63128237  0.20916150  0.17789741     0.20100
C401        C  0.62112004  0.16196486  0.19564784    -0.33200
C402        C  0.58894699  0.13041963  0.17089671     0.00800
C403        C  0.57088649  0.14463914  0.12458903    -0.24500
C404        C  0.61411822  0.33681655  0.05260228    -0.29100
C405        C  0.64708104  0.36664835  0.07882032     0.06500
C406        C  0.66171470  0.35202204  0.12571334    -0.27700
H407        H  0.55591762  0.26894508  0.00907202     0.11200
H408        H  0.53821747  0.18516376  0.03973206     0.12300
H409        H  0.68794187  0.31503804  0.21219485     0.11400
H410        H  0.67390081  0.23050568  0.24106448     0.10700
H411        H  0.63536897  0.15100559  0.23115848     0.16000
H412        H  0.54554178  0.12068902  0.10561470     0.12000
H413        H  0.60120270  0.34894191  0.01713895     0.14800
H414        H  0.68644582  0.37540148  0.14617887     0.14600
C415        C  0.54755997  0.67902225  0.86093841    -0.18300
C416        C  0.52961915  0.72180088  0.83795745    -0.20500
C417        C  0.55323170  0.76748462  0.84418594     0.20200
C418        C  0.59445676  0.77041504  0.87483928    -0.03400
C419        C  0.61342152  0.72706391  0.89666578    -0.06400
C420        C  0.59013831  0.68092097  0.88959326     0.20500
C421        C  0.65695188  0.72969896  0.92381880     0.18600
C422        C  0.68004938  0.77540457  0.93096262    -0.17900
C423        C  0.66035711  0.81850049  0.91084531    -0.20100
C424        C  0.61795209  0.81638481  0.88221558     0.20100
C425        C  0.59983671  0.85911877  0.85932497    -0.33200
C426        C  0.56025428  0.85603403  0.82704694     0.00800
C427        C  0.53723353  0.81008303  0.81943294    -0.24500
C428        C  0.61108058  0.63749892  0.90956657    -0.29100
C429        C  0.65593503  0.63989039  0.93474929     0.06500
C430        C  0.67805277  0.68639905  0.94169132    -0.27700
H431        H  0.52889301  0.64423010  0.85518220     0.11200
H432        H  0.49737532  0.71912245  0.81510026     0.12300
H433        H  0.71374361  0.77774162  0.95166175     0.11400
H434        H  0.67905268  0.85329285  0.91658040     0.10700
H435        H  0.61832864  0.89419156  0.86423717     0.16000
H436        H  0.50670991  0.80764339  0.79425595     0.12000
H437        H  0.59410549  0.60194235  0.90316924     0.14800
H438        H  0.71328798  0.68903139  0.95950418     0.14600
C439        C  0.54352641  0.27333945  0.81948674    -0.18300
C440        C  0.56015466  0.31707361  0.84092915    -0.20500
C441        C  0.59438731  0.31549142  0.87911077     0.20200
C442        C  0.60980247  0.26903202  0.89753146    -0.03400
C443        C  0.59207140  0.22482799  0.87666176    -0.06400
C444        C  0.56032405  0.22721745  0.83629523     0.20500
C445        C  0.60816224  0.17837832  0.89449698     0.18600
C446        C  0.64063404  0.17677574  0.93417488    -0.17900
C447        C  0.65918751  0.22051520  0.95397371    -0.20100
C448        C  0.64491435  0.26666575  0.93503443     0.20100
C449        C  0.66676365  0.31032015  0.95145199    -0.33200
C450        C  0.65285382  0.35681863  0.93243274     0.00800
C451        C  0.61531255  0.35928434  0.89745633    -0.24500
C452        C  0.54776561  0.18366111  0.81196403    -0.29100
C453        C  0.56485060  0.13714787  0.82824887     0.06500
C454        C  0.59353093  0.13463864  0.87079697    -0.27700
H455        H  0.51839750  0.27563328  0.78893918     0.11200
H456        H  0.54755868  0.35217639  0.82646072     0.12300
H457        H  0.65312525  0.14167298  0.94872462     0.11400
H458        H  0.68556605  0.21822294  0.98344460     0.10700
H459        H  0.69544154  0.30812263  0.97875957     0.16000
H460        H  0.60490119  0.39479679  0.88218491     0.12000
H461        H  0.52523415  0.18611993  0.77944087     0.14800
H462        H  0.60702780  0.09916696  0.88346228     0.14600
C463        C  0.95805399  0.56328100  0.73412468    -0.18300
C464        C  0.94080641  0.55292531  0.78175014    -0.20500
C465        C  0.89441290  0.56955136  0.79719029     0.20200
C466        C  0.86485862  0.59588080  0.76353454    -0.03400
C467        C  0.88210439  0.60607021  0.71559358    -0.06400
C468        C  0.92928451  0.59051805  0.70090069     0.20500
C469        C  0.85243285  0.63304077  0.68270983     0.18600
C470        C  0.80556982  0.64839760  0.69719425    -0.17900
C471        C  0.78846806  0.63820072  0.74436847    -0.20100
C472        C  0.81798853  0.61240282  0.77776877     0.20100
C473        C  0.80065916  0.60198855  0.82481521    -0.33200
C474        C  0.82854131  0.57413581  0.85831128     0.00800
C475        C  0.87624749  0.55920861  0.84491149    -0.24500
C476        C  0.94751254  0.60491185  0.65435307    -0.29100
C477        C  0.91942171  0.63574151  0.62357882     0.06500
C478        C  0.87113334  0.64690558  0.63696008    -0.27700
H479        H  0.99428656  0.55072115  0.72358879     0.11200
H480        H  0.96390332  0.53210401  0.80658438     0.12300
H481        H  0.78246414  0.66909945  0.67227723     0.11400
H482        H  0.75219391  0.65073860  0.75484059     0.10700
H483        H  0.76404197  0.61405900  0.83485571     0.16000
H484        H  0.89766179  0.53705976  0.87014159     0.12000
H485        H  0.98430763  0.59484921  0.64354903     0.14800
H486        H  0.84929851  0.66997972  0.61295211     0.14600
C487        C  0.83741928  0.53355660  0.27233822    -0.18300
C488        C  0.85938087  0.55087494  0.31509664    -0.20500
C489        C  0.89671618  0.58646920  0.31249620     0.20200
C490        C  0.91410159  0.60244268  0.26611466    -0.03400
C491        C  0.89270528  0.58399885  0.22284510    -0.06400
C492        C  0.85295422  0.55097832  0.22625307     0.20500
C493        C  0.90929853  0.60060120  0.17636527     0.18600
C494        C  0.94837768  0.63432908  0.17382825    -0.17900
C495        C  0.96873706  0.65357686  0.21673007    -0.20100
C496        C  0.95088587  0.63887959  0.26295915     0.20100
C497        C  0.96723994  0.66176340  0.30591030    -0.33200
C498        C  0.94853883  0.64757923  0.35216477     0.00800
C499        C  0.91490022  0.60838431  0.35530633    -0.24500
C500        C  0.82802535  0.53751404  0.18374470    -0.29100
C501        C  0.84302307  0.55498154  0.13724522     0.06500
C502        C  0.88491110  0.58513915  0.13360264    -0.27700
H503        H  0.80746695  0.50737865  0.27536038     0.11200
H504        H  0.84585051  0.53783685  0.35025997     0.12300
H505        H  0.96198477  0.64725475  0.13865631     0.11400
H506        H  0.99761447  0.68094830  0.21372482     0.10700
H507        H  0.99359915  0.69168397  0.30332676     0.16000
H508        H  0.90010606  0.59758054  0.39072797     0.12000
H509        H  0.79615532  0.51370710  0.18694647     0.14800
H510        H  0.89645680  0.59909268  0.09806731     0.14600
C511        C  0.86129772  0.45035349  0.68612315    -0.18300
C512        C  0.83818085  0.46639523  0.72903539    -0.20500
C513        C  0.85135753  0.44638333  0.77469837     0.20200
C514        C  0.89015603  0.41225796  0.77766975    -0.03400
C515        C  0.91261294  0.39514668  0.73428610    -0.06400
C516        C  0.89738600  0.41348427  0.68815197     0.20500
C517        C  0.94823067  0.35763008  0.73698224     0.18600
C518        C  0.96388347  0.34028552  0.78289797    -0.17900
C519        C  0.94248461  0.35814272  0.82594948    -0.20100
C520        C  0.90456540  0.39304073  0.82372399     0.20100
C521        C  0.87907387  0.40701266  0.86634546    -0.33200
C522        C  0.83793452  0.43792691  0.86296999     0.00800
C523        C  0.82488181  0.45804456  0.81710062    -0.24500
C524        C  0.91637341  0.39259004  0.64496409    -0.29100
C525        C  0.94891184  0.35248261  0.64762060     0.06500
C526        C  0.96571051  0.33630123  0.69375890    -0.27700
H527        H  0.84952561  0.46532163  0.65120921     0.11200
H528        H  0.80908582  0.49351321  0.72638897     0.12300
H529        H  0.99178275  0.31192515  0.78546611     0.11400
H530        H  0.95427398  0.34321967  0.86087967     0.10700
H531        H  0.88906873  0.39120519  0.90149048     0.16000
H532        H  0.79337027  0.48227345  0.81425518     0.12000
H533        H  0.90316158  0.40504578  0.60959843     0.14800
H534        H  0.99145772  0.30586729  0.69603506     0.14600
C535        C  0.92972554  0.44979129  0.22349157    -0.18300
C536        C  0.94466015  0.44014644  0.27182788    -0.20500
C537        C  0.91971572  0.40516907  0.30102205     0.20200
C538        C  0.87898222  0.38014215  0.28116733    -0.03400
C539        C  0.86376993  0.39009452  0.23264465    -0.06400
C540        C  0.88921780  0.42502808  0.20345382     0.20500
C541        C  0.82303832  0.36486052  0.21334120     0.18600
C542        C  0.79913544  0.32869523  0.24162564    -0.17900
C543        C  0.81430132  0.31857410  0.28932917    -0.20100
C544        C  0.85398584  0.34418982  0.30939536     0.20100
C545        C  0.87090540  0.33204043  0.35609986    -0.33200
C546        C  0.91324898  0.35417151  0.37504588     0.00800
C547        C  0.93623919  0.39254908  0.34850989    -0.24500
C548        C  0.87234215  0.43581568  0.15564409    -0.29100
C549        C  0.82875281  0.41418233  0.13843438     0.06500
C550        C  0.80576725  0.37728530  0.16672378    -0.27700
H551        H  0.94959305  0.47702615  0.20193818     0.11200
H552        H  0.97620209  0.45954785  0.28612291     0.12300
H553        H  0.76898181  0.30787711  0.22672515     0.11400
H554        H  0.79536437  0.29021612  0.31032635     0.07100
H555        H  0.85347113  0.30207978  0.37631344     0.16000
H556        H  0.96913168  0.40943352  0.36286648     0.12000
H557        H  0.89066481  0.46376923  0.13366751     0.14800
H558        H  0.77288346  0.35968385  0.15312668     0.14600
C559        C  0.30870867  0.79280746  0.82486259    -0.18300
C560        C  0.29471346  0.74477454  0.83686492    -0.20500
C561        C  0.32464248  0.71543896  0.86678742     0.20200
C562        C  0.36877344  0.73454391  0.88546681    -0.03400
C563        C  0.38301375  0.78314348  0.87305310    -0.06400
C564        C  0.35319186  0.81179204  0.84175745     0.20500
C565        C  0.42725342  0.80281923  0.89110502     0.18600
C566        C  0.45596419  0.77393325  0.92294854    -0.17900
C567        C  0.44173056  0.72554612  0.93542667    -0.20100
C568        C  0.39838268  0.70521813  0.91652983     0.20100
C569        C  0.38278405  0.65709278  0.92956808    -0.33200
C570        C  0.33734763  0.63941755  0.91283083     0.00800
C571        C  0.30980624  0.66804234  0.87997306    -0.24500
C572        C  0.36952889  0.85788910  0.82554613    -0.29100
C573        C  0.41558382  0.87564216  0.83924240     0.06500
C574        C  0.44298613  0.84979985  0.87465249    -0.27700
H575        H  0.28489602  0.81507614  0.80208885     0.11200
H576        H  0.26031592  0.73067382  0.82301793     0.12300
H577        H  0.48999862  0.78834762  0.93731973     0.11400
H578        H  0.46471803  0.70399577  0.95976402     0.10700
H579        H  0.40374928  0.63527387  0.95548196     0.16000
H580        H  0.27497323  0.65425353  0.86669319     0.12000
H581        H  0.34802734  0.87850189  0.79909604     0.14800
H582        H  0.47805120  0.86423633  0.88620680     0.14600
C583        C  0.36769165  0.26379062  0.78629858    -0.18300
C584        C  0.35499391  0.30896114  0.80688249    -0.20500
C585        C  0.36810015  0.31957834  0.85517602     0.20200
C586        C  0.39628717  0.28547458  0.88242951    -0.03400
C587        C  0.40876983  0.23956947  0.86180078    -0.06400
C588        C  0.39378379  0.22873553  0.81374943     0.20500
C589        C  0.43537984  0.20431491  0.88936136     0.18600
C590        C  0.45101118  0.21653855  0.93675416    -0.17900
C591        C  0.43900016  0.26246946  0.95711416    -0.20100
C592        C  0.41069799  0.29675848  0.93062954     0.20100
C593        C  0.39427884  0.34095509  0.95203804    -0.33200
C594        C  0.36152619  0.37183758  0.92665669     0.00800
C595        C  0.35096768  0.36243159  0.87754050    -0.24500
C596        C  0.40542328  0.18318370  0.79353990    -0.29100
C597        C  0.43198525  0.14776073  0.82021513     0.06500
C598        C  0.44623170  0.15796122  0.86859255    -0.27700
H599        H  0.35654307  0.25600707  0.74909214     0.11200
H600        H  0.33420777  0.33528426  0.78535013     0.12300
H601        H  0.47213847  0.19043425  0.95824326     0.11400
H602        H  0.45074663  0.27061488  0.99404701     0.10700
H603        H  0.40495161  0.34987183  0.98891401     0.16000
H604        H  0.32664196  0.38701129  0.85768942     0.12000
H605        H  0.39421958  0.17542358  0.75628988     0.14800
H606        H  0.46753595  0.13104363  0.88891122     0.14600
C607        C  0.41424102  0.72813645  0.20312817    -0.18300
C608        C  0.40208865  0.68438222  0.17929960    -0.20500
C609        C  0.38560706  0.68557905  0.13078566     0.20200
C610        C  0.38292357  0.73128555  0.10553189    -0.03400
C611        C  0.39758519  0.77530572  0.12892250    -0.06400
C612        C  0.41215164  0.77359361  0.17821983     0.20500
C613        C  0.39598009  0.82109413  0.10367440     0.18600
C614        C  0.37901176  0.82212721  0.05514221    -0.17900
C615        C  0.36214343  0.77879713  0.03275289    -0.20100
C616        C  0.36346258  0.73328808  0.05787572     0.20100
C617        C  0.34360038  0.69017294  0.03736615    -0.33200
C618        C  0.34669991  0.64441332  0.06216610     0.00800
C619        C  0.36921865  0.64224173  0.10816830    -0.24500
C620        C  0.42371328  0.81735768  0.20228528    -0.29100
C621        C  0.42397570  0.86329335  0.17757720     0.06500
C622        C  0.41031794  0.86486162  0.12785543    -0.27700
H623        H  0.42554501  0.72639200  0.24109599     0.11200
H624        H  0.40407152  0.64977113  0.19935261     0.12300
H625        H  0.37747646  0.85667357  0.03494999     0.11400
H626        H  0.34778256  0.78093212  0.99585870     0.10700
H627        H  0.32423795  0.69251937  0.00291676     0.16000
H628        H  0.37001239  0.60748647  0.12814504     0.12000
H629        H  0.43341378  0.81523824  0.24069773     0.14800
H630        H  0.40953892  0.89995996  0.10856341     0.14600
C631        C  0.34424753  0.22789193  0.04900799    -0.18300
C632        C  0.36510693  0.18389065  0.06602091    -0.20500
C633        C  0.40322332  0.18499652  0.10025827     0.20200
C634        C  0.42307936  0.23104117  0.11439009    -0.03400
C635        C  0.40275244  0.27551856  0.09628717    -0.06400
C636        C  0.36173065  0.27366359  0.06536638     0.20500
C637        C  0.42141293  0.32170018  0.11160738     0.18600
C638        C  0.46203416  0.32262268  0.14297474    -0.17900
C639        C  0.48131947  0.27854124  0.16198185    -0.20100
C640        C  0.46077180  0.23278604  0.14932608     0.20100
C641        C  0.47475901  0.18916288  0.17343173    -0.33200
C642        C  0.45282243  0.14349376  0.16191724     0.00800
C643        C  0.41917463  0.14127696  0.12330262    -0.24500
C644        C  0.33737716  0.31739273  0.05318715    -0.29100
C645        C  0.35415903  0.36363029  0.06986630     0.06500
C646        C  0.39747085  0.36576862  0.09746517    -0.27700
H647        H  0.31332490  0.22608561  0.02432244     0.11200
H648        H  0.34978103  0.14902085  0.05427424     0.12300
H649        H  0.47745372  0.35748262  0.15461233     0.11400
H650        H  0.51117280  0.28033339  0.18795333     0.10700
H651        H  0.50132519  0.19102242  0.20278106     0.16000
H652        H  0.40211170  0.10632312  0.11438523     0.12000
H653        H  0.30468781  0.31536748  0.03083858     0.14800
H654        H  0.41062999  0.40111684  0.11036928     0.14600
C655        C  0.06349847  0.63765586  0.82007193    -0.18300
C656        C  0.04473477  0.65826823  0.77693237    -0.20500
C657        C  0.06186722  0.64256623  0.73101871     0.20200
C658        C  0.09648710  0.60416382  0.72828088    -0.03400
C659        C  0.11594642  0.58380045  0.77190514    -0.06400
C660        C  0.10003848  0.60127724  0.81807024     0.20500
C661        C  0.15308574  0.54784268  0.76925264     0.18600
C662        C  0.16797647  0.52996417  0.72332076    -0.17900
C663        C  0.14808843  0.54954965  0.68011823    -0.20100
C664        C  0.11325214  0.58765162  0.68205286     0.20100
C665        C  0.09639331  0.61088842  0.63885300    -0.33200
C666        C  0.06396490  0.65116167  0.64165919     0.00800
C667        C  0.04618883  0.66585571  0.68795031    -0.24500
C668        C  0.12280554  0.58413957  0.86117487    -0.29100
C669        C  0.16248984  0.55122312  0.85842920     0.06500
C670        C  0.17645314  0.53233717  0.81235046    -0.27700
H671        H  0.05056801  0.65135188  0.85501990     0.11200
H672        H  0.01759410  0.68735585  0.77950406     0.12300
H673        H  0.19595720  0.50168979  0.72076565     0.11400
H674        H  0.16111656  0.53596033  0.64516223     0.10700
H675        H  0.11027223  0.59931603  0.60347724     0.16000
H676        H  0.02039244  0.69619668  0.69056534     0.12000
H677        H  0.11214389  0.59918908  0.89634242     0.14800
H678        H  0.20681545  0.50661483  0.80989929     0.14600
C679        C  0.06274014  0.56473001  0.27374543    -0.18300
C680        C  0.07667770  0.55134623  0.22604778    -0.20500
C681        C  0.11479338  0.57649328  0.20154233     0.20200
C682        C  0.13884327  0.61568744  0.22552886    -0.03400
C683        C  0.12433271  0.62962902  0.27324244    -0.06400
C684        C  0.08621073  0.60393705  0.29770455     0.20500
C685        C  0.14767032  0.66977204  0.29619522     0.18600
C686        C  0.18601172  0.69472540  0.27216127    -0.17900
C687        C  0.20124019  0.68008361  0.22560268    -0.20100
C688        C  0.17781452  0.64079650  0.20203753     0.20100
C689        C  0.19406638  0.62507494  0.15613730    -0.33200
C690        C  0.17191223  0.58485559  0.13272169     0.00800
C691        C  0.13072220  0.56208076  0.15442490    -0.24500
C692        C  0.07108076  0.61934333  0.34473280    -0.29100
C693        C  0.09202984  0.66156393  0.36593168     0.06500
C694        C  0.13108603  0.68558914  0.34200337    -0.27700
H695        H  0.03315523  0.54478180  0.29167007     0.11200
H696        H  0.05798247  0.52092903  0.20854005     0.12300
H697        H  0.20423047  0.72560855  0.28939067     0.11400
H698        H  0.23133343  0.69954461  0.20797103     0.10700
H699        H  0.22583761  0.64268226  0.13943186     0.16000
H700        H  0.11354890  0.53106168  0.13647382     0.12000
H701        H  0.04078821  0.60091357  0.36303931     0.14800
H702        H  0.14714188  0.71824548  0.35828988     0.14600
C703        C  0.19991120  0.31940658  0.71379779    -0.18300
C704        C  0.21600388  0.33108098  0.76073240    -0.20500
C705        C  0.18900962  0.36359832  0.79014117     0.20200
C706        C  0.14532363  0.38471326  0.77228518    -0.03400
C707        C  0.12954490  0.37368320  0.72435689    -0.06400
C708        C  0.15670617  0.34032274  0.69541437     0.20500
C709        C  0.08632814  0.39527130  0.70568820     0.18600
C710        C  0.05923124  0.42760709  0.73547694    -0.17900
C711        C  0.07456153  0.43804431  0.78335013    -0.20100
C712        C  0.11763987  0.41685983  0.80220473     0.20100
C713        C  0.13475707  0.42867064  0.84949211    -0.33200
C714        C  0.18020166  0.41033969  0.86571293     0.00800
C715        C  0.20596460  0.37652295  0.83649143    -0.24500
C716        C  0.13893905  0.32638234  0.64958971    -0.29100
C717        C  0.09484536  0.34578422  0.63160106     0.06500
C718        C  0.07003444  0.38228519  0.65850061    -0.27700
H719        H  0.22105231  0.29365618  0.69202092     0.11200
H720        H  0.24938295  0.31433022  0.77418266     0.12300
H721        H  0.02577010  0.44430652  0.72200138     0.11400
H722        H  0.05295240  0.46309756  0.80545363     0.10700
H723        H  0.11491069  0.45497872  0.87179636     0.16000
H724        H  0.24066885  0.36183166  0.84915757     0.12000
H725        H  0.15796247  0.29808075  0.62892601     0.14800
H726        H  0.03645126  0.39787955  0.64430823     0.14600
C727        C  0.17625429  0.46447882  0.27630576    -0.18300
C728        C  0.15434055  0.44777514  0.31979928    -0.20500
C729        C  0.11468478  0.41481821  0.31842017     0.20200
C730        C  0.09523714  0.40083457  0.27258891    -0.03400
C731        C  0.11706142  0.41809817  0.22866421    -0.06400
C732        C  0.15871048  0.44867242  0.23074537     0.20500
C733        C  0.09884196  0.40262310  0.18279922     0.18600
C734        C  0.05742282  0.37189501  0.18147696    -0.17900
C735        C  0.03623482  0.35420087  0.22500012    -0.20100
C736        C  0.05587534  0.36727531  0.27055956     0.20100
C737        C  0.03874910  0.34516488  0.31387655    -0.33200
C738        C  0.05967086  0.35677983  0.35944946     0.00800
C739        C  0.09611878  0.39330228  0.36176472    -0.24500
C740        C  0.18352312  0.46105707  0.18742525    -0.29100
C741        C  0.16738098  0.44367445  0.14162322     0.06500
C742        C  0.12382460  0.41604949  0.13937105    -0.27700
H743        H  0.20789032  0.48859164  0.27833612     0.11200
H744        H  0.16955328  0.45922268  0.35450938     0.12300
H745        H  0.04250870  0.36005531  0.14677534     0.11400
H746        H  0.00538575  0.32906848  0.22299300     0.10700
H747        H  0.01023604  0.31730907  0.31198551     0.16000
H748        H  0.11260118  0.40205945  0.39670429     0.12000
H749        H  0.21641475  0.48344279  0.18955590     0.14800
H750        H  0.11102561  0.40271146  0.10434572     0.14600
loop_ 
_geom_bond_atom_site_label_1 
_geom_bond_atom_site_label_2 
_geom_bond_distance 
_geom_bond_site_symmetry_2 
_ccdc_geom_bond_type 
O1            C9   1.276       .  A
O1          Co21   1.994       .  S
O2           C10   1.276       .  A
O2          Co22   1.992       .  S
O3           C11   1.269       .  A
O3          Co23   2.006       .  S
O4           C12   1.269       .  A
O4          Co24   2.012       .  S
O5           C11   1.270       .  A
O5          Co22   1.996   1_554  S
O6           C12   1.269       .  A
O6          Co21   1.996   1_556  S
O7           C10   1.275       .  A
O7          Co24   2.020       .  S
O8            C9   1.274       .  A
O8          Co23   2.010       .  S
C9          C741   1.485       .  S
C10         C669   1.486       .  S
C11         C690   1.477       .  S
C12         C714   1.479       .  S
O13          C26   1.280       .  A
O13         Co21   2.042   1_556  S
O14          C27   1.276       .  A
O14         Co22   2.027   1_554  S
O15          C28   1.273       .  A
O15         Co23   2.007       .  S
O16          C29   1.265       .  A
O16         Co24   1.989       .  S
O17          C29   1.267       .  A
O17         Co22   1.996       .  S
O18          C28   1.264       .  A
O18         Co21   1.994       .  S
O19          C26   1.265       .  A
O19         Co24   1.967       .  S
O20          C27   1.275       .  A
O20         Co23   1.980       .  S
Co21         O25   2.102   1_554  S
Co22         O25   2.103       .  S
Co23         O25   2.101   1_554  S
Co24         O25   2.096       .  S
C26         C594   1.468       .  S
C27         C618   1.478       .  S
C28         C645   1.484       .  S
C29         C570   1.472       .  S
O30          C38   1.270       .  A
O30         Co50   2.020       .  S
O31          C39   1.269       .  A
O31         Co51   1.999       .  S
O32          C40   1.273       .  A
O32         Co52   1.982   1_556  S
O33          C41   1.276       .  A
O33         Co53   1.992       .  S
O34          C40   1.275       .  A
O34         Co51   2.016       .  S
O35          C41   1.274       .  A
O35         Co50   2.013       .  S
O36          C39   1.274       .  A
O36         Co53   2.006   1_556  S
O37          C38   1.268       .  A
O37         Co52   1.997       .  S
C38         C549   1.483       .  S
C39         C474   1.486       .  S
C40         C522   1.479       .  S
C41         C501   1.486       .  S
O42          C55   1.270       .  A
O42         Co50   1.989       .  S
O43          C56   1.274       .  A
O43         Co51   2.001       .  S
O44          C57   1.278       .  A
O44         Co52   2.028       .  S
O45          C58   1.275       .  A
O45         Co53   2.009   1_556  S
O46          C58   1.277       .  A
O46         Co51   1.996       .  S
O47          C57   1.269       .  A
O47         Co50   1.983       .  S
O48          C55   1.269       .  A
O48         Co53   2.010       .  S
O49          C56   1.267       .  A
O49         Co52   2.001   1_556  S
Co50         O54   2.100       .  S
Co51         O54   2.106   1_556  S
Co52         O54   2.100       .  S
Co53         O54   2.104       .  S
C55         C378   1.484       .  S
C56         C450   1.485       .  S
C57         C405   1.473       .  S
C58         C429   1.489       .  S
O59          C67   1.271       .  A
O59         Co79   1.996       .  S
O60          C68   1.270       .  A
O60         Co80   1.996       .  S
O61          C69   1.274       .  A
O61         Co81   2.017   1_565  S
O62          C70   1.271       .  A
O62         Co82   2.008   1_545  S
O63          C69   1.273       .  A
O63         Co80   1.988       .  S
O64          C70   1.274       .  A
O64         Co79   1.984       .  S
O65          C68   1.271       .  A
O65         Co82   2.012       .  S
O66          C67   1.271       .  A
O66         Co81   2.010       .  S
C67         C354   1.476       .  S
C68         C282   1.477       .  S
C69         C309   1.486       .  S
C70         C330   1.475       .  S
O71          C84   1.271       .  A
O71         Co79   2.004       .  S
O72          C85   1.270       .  A
O72         Co80   2.007       .  S
O73          C86   1.274       .  A
O73         Co81   1.990       .  S
O74          C87   1.270       .  A
O74         Co82   1.972       .  S
O75          C87   1.275       .  A
O75         Co80   2.025       .  S
O76          C86   1.273       .  A
O76         Co79   2.014       .  S
O77          C84   1.270       .  A
O77         Co82   1.997   1_545  S
O78          C85   1.273       .  A
O78         Co81   2.001   1_565  S
Co79         O83   2.098       .  S
Co80         O83   2.102   1_565  S
Co81         O83   2.105       .  S
Co82         O83   2.104   1_565  S
C84         C402   1.479       .  S
C85         C621   1.493       .  S
C86         C642   1.482       .  S
C87         C381   1.480       .  S
O88          C96   1.272       .  A
O88        Co108   2.003       .  S
O89          C97   1.279       .  A
O89        Co109   2.035       .  S
O90          C98   1.274       .  A
O90        Co110   1.997       .  S
O91          C99   1.266       .  A
O91        Co111   1.990       .  S
O92          C98   1.265       .  A
O92        Co109   1.988   1_545  S
O93          C99   1.272       .  A
O93        Co108   2.029   1_565  S
O94          C97   1.270       .  A
O94        Co111   1.978       .  S
O95          C96   1.276       .  A
O95        Co110   1.994       .  S
C96         C261   1.479       .  S
C97         C189   1.476       .  S
C98         C234   1.479       .  S
C99         C210   1.482       .  S
O100        C113   1.267       .  A
O100       Co108   1.979   1_565  S
O101        C114   1.278       .  A
O101       Co109   2.002   1_545  S
O102        C115   1.270       .  A
O102       Co110   2.004       .  S
O103        C116   1.266       .  A
O103       Co111   2.004       .  S
O104        C116   1.270       .  A
O104       Co109   1.983       .  S
O105        C115   1.268       .  A
O105       Co108   1.987       .  S
O106        C113   1.277       .  A
O106       Co111   2.028       .  S
O107        C114   1.273       .  A
O107       Co110   2.013       .  S
Co108       O112   2.100       .  S
Co109       O112   2.101   1_565  S
Co110       O112   2.106       .  S
Co111       O112   2.102   1_565  S
C113        C573   1.470       .  S
C114        C453   1.489       .  S
C115        C597   1.475       .  S
C116        C426   1.474       .  S
O117        C125   1.271       .  A
O117       Co137   1.982       .  S
O118        C126   1.274       .  A
O118       Co138   1.985       .  S
O119        C127   1.271       .  A
O119       Co139   2.005       .  S
O120        C128   1.272       .  A
O120       Co140   2.015       .  S
O121        C127   1.272       .  A
O121       Co138   1.996       .  S
O122        C128   1.270       .  A
O122       Co137   1.992       .  S
O123        C126   1.273       .  A
O123       Co140   2.010   1_655  S
O124        C125   1.272       .  A
O124       Co139   2.013   1_455  S
C125        C738   1.478       .  S
C126        C525   1.480       .  S
C127        C546   1.475       .  S
C128        C717   1.475       .  S
O129        C142   1.271       .  A
O129       Co137   2.007       .  S
O130        C143   1.273       .  A
O130       Co138   2.011       .  S
O131        C144   1.269       .  A
O131       Co139   1.993   1_455  S
O132        C145   1.273       .  A
O132       Co140   2.001   1_655  S
O133        C145   1.269       .  A
O133       Co138   2.005       .  S
O134        C144   1.273       .  A
O134       Co137   2.014       .  S
O135        C142   1.272       .  A
O135       Co140   1.983       .  S
O136        C143   1.272       .  A
O136       Co139   1.984       .  S
Co137       O141   2.097       .  S
Co138       O141   2.098   1_655  S
Co139       O141   2.103   1_655  S
Co140       O141   2.105       .  S
C142        C258   1.474       .  S
C143        C333   1.485       .  S
C144        C357   1.478       .  S
C145        C237   1.487       .  S
O146        C154   1.273       .  A
O146       Co166   2.016       .  S
O147        C155   1.275       .  A
O147       Co167   2.022       .  S
O148        C156   1.273       .  A
O148       Co168   1.993       .  S
O149        C157   1.271       .  A
O149       Co169   1.983       .  S
O150        C156   1.271       .  A
O150       Co167   2.010   1_455  S
O151        C157   1.273       .  A
O151       Co166   2.020   1_655  S
O152        C155   1.270       .  A
O152       Co169   1.992       .  S
O153        C154   1.272       .  A
O153       Co168   1.993       .  S
C154        C693   1.476       .  S
C155        C477   1.477       .  S
C156        C666   1.487       .  S
C157        C498   1.483       .  S
O158        C171   1.273       .  A
O158       Co166   2.002   1_655  S
O159        C172   1.273       .  A
O159       Co167   1.998   1_455  S
O160        C173   1.271       .  A
O160       Co168   2.009       .  S
O161        C174   1.273       .  A
O161       Co169   2.018       .  S
O162        C174   1.272       .  A
O162       Co167   1.996       .  S
O163        C173   1.274       .  A
O163       Co166   1.996       .  S
O164        C171   1.272       .  A
O164       Co169   2.011       .  S
O165        C172   1.273       .  A
O165       Co168   2.009       .  S
Co166       O170   2.107   1_455  S
Co167       O170   2.102       .  S
Co168       O170   2.099   1_455  S
Co169       O170   2.100       .  S
C171        C285   1.487       .  S
C172        C213   1.478       .  S
C173        C306   1.484       .  S
C174        C186   1.490       .  S
C175        C176   1.402       .  A
C175        C180   1.405       .  A
C175        H191   1.083       .  S
C176        C177   1.404       .  A
C176        H192   1.082       .  S
C177        C187   1.413       .  A
C177        C178   1.414       .  A
C178        C184   1.407       .  A
C178        C179   1.414       .  A
C179        C181   1.413       .  A
C179        C180   1.409       .  A
C180        C188   1.407       .  A
C181        C190   1.404       .  A
C181        C182   1.402       .  A
C182        C183   1.398       .  A
C182        H193   1.084       .  S
C183        C184   1.404       .  A
C183        H194   1.083       .  S
C184        C185   1.398       .  A
C185        C186   1.410       .  A
C185        H195   1.082       .  S
C186        C187   1.408       .  A
C187        H196   1.083       .  S
C188        C189   1.403       .  A
C188        H197   1.077       .  S
C189        C190   1.404       .  A
C190        H198   1.085       .  S
C199        C200   1.393       .  A
C199        C204   1.401       .  A
C199        H215   1.084       .  S
C200        C201   1.401       .  A
C200        H216   1.081       .  S
C201        C211   1.398       .  A
C201        C202   1.411       .  A
C202        C208   1.412       .  A
C202        C203   1.414       .  A
C203        C205   1.414       .  A
C203        C204   1.410       .  A
C204        C212   1.395       .  A
C205        C214   1.416       .  A
C205        C206   1.408       .  A
C206        C207   1.407       .  A
C206        H217   1.083       .  S
C207        C208   1.408       .  A
C207        H218   1.084       .  S
C208        C209   1.415       .  A
C209        C210   1.410       .  A
C209        H219   1.082       .  S
C210        C211   1.401       .  A
C211        H220   1.083       .  S
C212        C213   1.403       .  A
C212        H221   1.086       .  S
C213        C214   1.410       .  A
C214        H222   1.083       .  S
C223        C224   1.401       .  A
C223        C228   1.404       .  A
C223        H239   1.083       .  S
C224        C225   1.406       .  A
C224        H240   1.084       .  S
C225        C235   1.400       .  A
C225        C226   1.406       .  A
C226        C232   1.417       .  A
C226        C227   1.413       .  A
C227        C229   1.405       .  A
C227        C228   1.417       .  A
C228        C236   1.413       .  A
C229        C238   1.396       .  A
C229        C230   1.404       .  A
C230        C231   1.398       .  A
C230        H241   1.083       .  S
C231        C232   1.401       .  A
C231        H242   1.084       .  S
C232        C233   1.408       .  A
C233        C234   1.402       .  A
C233        H243   1.084       .  S
C234        C235   1.412       .  A
C235        H244   1.085       .  S
C236        C237   1.406       .  A
C236        H245   1.084       .  S
C237        C238   1.410       .  A
C238        H246   1.083       .  S
C247        C248   1.401       .  A
C247        C252   1.404       .  A
C247        H263   1.083       .  S
C248        C249   1.405       .  A
C248        H264   1.084       .  S
C249        C259   1.400       .  A
C249        C250   1.407       .  A
C250        C256   1.416       .  A
C250        C251   1.410       .  A
C251        C253   1.406       .  A
C251        C252   1.416       .  A
C252        C260   1.411       .  A
C253        C262   1.392       .  A
C253        C254   1.403       .  A
C254        C255   1.396       .  A
C254        H265   1.084       .  S
C255        C256   1.401       .  A
C255        H266   1.083       .  S
C256        C257   1.403       .  A
C257        C258   1.400       .  A
C257        H267   1.084       .  S
C258        C259   1.410       .  A
C259        H268   1.085       .  S
C260        C261   1.405       .  A
C260        H269   1.084       .  S
C261        C262   1.409       .  A
C262        H270   1.085       .  S
C271        C272   1.406       .  A
C271        C276   1.406       .  A
C271        H287   1.082       .  S
C272        C273   1.407       .  A
C272        H288   1.084       .  S
C273        C283   1.415       .  A
C273        C274   1.412       .  A
C274        C280   1.411       .  A
C274        C275   1.415       .  A
C275        C277   1.409       .  A
C275        C276   1.413       .  A
C276        C284   1.417       .  A
C277        C286   1.396       .  A
C277        C278   1.402       .  A
C278        C279   1.395       .  A
C278        H289   1.084       .  S
C279        C280   1.401       .  A
C279        H290   1.084       .  S
C280        C281   1.397       .  A
C281        C282   1.402       .  A
C281        H291   1.085       .  S
C282        C283   1.409       .  A
C283        H292   1.082       .  S
C284        C285   1.410       .  A
C284        H293   1.082       .  S
C285        C286   1.407       .  A
C286        H294   1.085       .  S
C295        C296   1.400       .  A
C295        C300   1.405       .  A
C295        H311   1.084       .  S
C296        C297   1.403       .  A
C296        H312   1.083       .  S
C297        C307   1.411       .  A
C297        C298   1.416       .  A
C298        C304   1.407       .  A
C298        C299   1.414       .  A
C299        C301   1.415       .  A
C299        C300   1.408       .  A
C300        C308   1.401       .  A
C301        C310   1.409       .  A
C301        C302   1.403       .  A
C302        C303   1.400       .  A
C302        H313   1.083       .  S
C303        C304   1.405       .  A
C303        H314   1.084       .  S
C304        C305   1.401       .  A
C305        C306   1.411       .  A
C305        H315   1.085       .  S
C306        C307   1.405       .  A
C307        H316   1.084       .  S
C308        C309   1.411       .  A
C308        H317   1.084       .  S
C309        C310   1.406       .  A
C310        H318   1.084       .  S
C319        C320   1.401       .  A
C319        C324   1.404       .  A
C319        H335   1.083       .  S
C320        C321   1.405       .  A
C320        H336   1.084       .  S
C321        C331   1.401       .  A
C321        C322   1.407       .  A
C322        C328   1.415       .  A
C322        C323   1.411       .  A
C323        C325   1.405       .  A
C323        C324   1.415       .  A
C324        C332   1.411       .  A
C325        C334   1.394       .  A
C325        C326   1.403       .  A
C326        C327   1.396       .  A
C326        H337   1.083       .  S
C327        C328   1.401       .  A
C327        H338   1.083       .  S
C328        C329   1.404       .  A
C329        C330   1.401       .  A
C329        H339   1.084       .  S
C330        C331   1.410       .  A
C331        H340   1.084       .  S
C332        C333   1.407       .  A
C332        H341   1.084       .  S
C333        C334   1.410       .  A
C334        H342   1.083       .  S
C343        C344   1.394       .  A
C343        C348   1.401       .  A
C343        H359   1.084       .  S
C344        C345   1.401       .  A
C344        H360   1.084       .  S
C345        C355   1.396       .  A
C345        C346   1.411       .  A
C346        C352   1.413       .  A
C346        C347   1.413       .  A
C347        C349   1.414       .  A
C347        C348   1.410       .  A
C348        C356   1.395       .  A
C349        C358   1.415       .  A
C349        C350   1.407       .  A
C350        C351   1.406       .  A
C350        H361   1.084       .  S
C351        C352   1.407       .  A
C351        H362   1.084       .  S
C352        C353   1.414       .  A
C353        C354   1.409       .  A
C353        H363   1.082       .  S
C354        C355   1.402       .  A
C355        H364   1.085       .  S
C356        C357   1.403       .  A
C356        H365   1.086       .  S
C357        C358   1.409       .  A
C358        H366   1.083       .  S
C367        C368   1.399       .  A
C367        C372   1.403       .  A
C367        H383   1.084       .  S
C368        C369   1.404       .  A
C368        H384   1.083       .  S
C369        C379   1.399       .  A
C369        C370   1.407       .  A
C370        C376   1.415       .  A
C370        C371   1.413       .  A
C371        C373   1.407       .  A
C371        C372   1.414       .  A
C372        C380   1.406       .  A
C373        C382   1.401       .  A
C373        C374   1.404       .  A
C374        C375   1.400       .  A
C374        H385   1.081       .  S
C375        C376   1.403       .  A
C375        H386   1.083       .  S
C376        C377   1.409       .  A
C377        C378   1.405       .  A
C377        H387   1.084       .  S
C378        C379   1.410       .  A
C379        H388   1.082       .  S
C380        C381   1.405       .  A
C380        H389   1.084       .  S
C381        C382   1.408       .  A
C382        H390   1.081       .  S
C391        C392   1.407       .  A
C391        C396   1.408       .  A
C391        H407   1.084       .  S
C392        C393   1.408       .  A
C392        H408   1.083       .  S
C393        C403   1.417       .  A
C393        C394   1.414       .  A
C394        C400   1.409       .  A
C394        C395   1.412       .  A
C395        C397   1.411       .  A
C395        C396   1.411       .  A
C396        C404   1.414       .  A
C397        C406   1.394       .  A
C397        C398   1.398       .  A
C398        C399   1.392       .  A
C398        H409   1.081       .  S
C399        C400   1.401       .  A
C399        H410   1.084       .  S
C400        C401   1.391       .  A
C401        C402   1.403       .  A
C401        H411   1.086       .  S
C402        C403   1.410       .  A
C403        H412   1.084       .  S
C404        C405   1.409       .  A
C404        H413   1.081       .  S
C405        C406   1.398       .  A
C406        H414   1.084       .  S
C415        C416   1.403       .  A
C415        C420   1.405       .  A
C415        H431   1.083       .  S
C416        C417   1.406       .  A
C416        H432   1.084       .  S
C417        C427   1.404       .  A
C417        C418   1.408       .  A
C418        C424   1.416       .  A
C418        C419   1.412       .  A
C419        C421   1.405       .  A
C419        C420   1.416       .  A
C420        C428   1.415       .  A
C421        C430   1.393       .  A
C421        C422   1.404       .  A
C422        C423   1.395       .  A
C422        H433   1.083       .  S
C423        C424   1.401       .  A
C423        H434   1.084       .  S
C424        C425   1.403       .  A
C425        C426   1.400       .  A
C425        H435   1.084       .  S
C426        C427   1.410       .  A
C427        H436   1.085       .  S
C428        C429   1.408       .  A
C428        H437   1.084       .  S
C429        C430   1.410       .  A
C430        H438   1.082       .  S
C439        C440   1.401       .  A
C439        C444   1.405       .  A
C439        H455   1.084       .  S
C440        C441   1.403       .  A
C440        H456   1.083       .  S
C441        C451   1.412       .  A
C441        C442   1.416       .  A
C442        C448   1.407       .  A
C442        C443   1.415       .  A
C443        C445   1.416       .  A
C443        C444   1.406       .  A
C444        C452   1.401       .  A
C445        C454   1.412       .  A
C445        C446   1.403       .  A
C446        C447   1.401       .  A
C446        H457   1.083       .  S
C447        C448   1.405       .  A
C447        H458   1.084       .  S
C448        C449   1.401       .  A
C449        C450   1.411       .  A
C449        H459   1.085       .  S
C450        C451   1.405       .  A
C451        H460   1.084       .  S
C452        C453   1.413       .  A
C452        H461   1.084       .  S
C453        C454   1.405       .  A
C454        H462   1.084       .  S
C463        C464   1.407       .  A
C463        C468   1.407       .  A
C463        H479   1.083       .  S
C464        C465   1.407       .  A
C464        H480   1.083       .  S
C465        C475   1.417       .  A
C465        C466   1.415       .  A
C466        C472   1.408       .  A
C466        C467   1.414       .  A
C467        C469   1.412       .  A
C467        C468   1.411       .  A
C468        C476   1.414       .  A
C469        C478   1.396       .  A
C469        C470   1.400       .  A
C470        C471   1.393       .  A
C470        H481   1.083       .  S
C471        C472   1.402       .  A
C471        H482   1.084       .  S
C472        C473   1.393       .  A
C473        C474   1.408       .  A
C473        H483   1.085       .  S
C474        C475   1.410       .  A
C475        H484   1.084       .  S
C476        C477   1.410       .  A
C476        H485   1.080       .  S
C477        C478   1.399       .  A
C478        H486   1.083       .  S
C487        C488   1.398       .  A
C487        C492   1.404       .  A
C487        H503   1.084       .  S
C488        C489   1.403       .  A
C488        H504   1.083       .  S
C489        C499   1.407       .  A
C489        C490   1.415       .  A
C490        C496   1.409       .  A
C490        C491   1.414       .  A
C491        C493   1.415       .  A
C491        C492   1.407       .  A
C492        C500   1.398       .  A
C493        C502   1.412       .  A
C493        C494   1.404       .  A
C494        C495   1.402       .  A
C494        H505   1.083       .  S
C495        C496   1.405       .  A
C495        H506   1.084       .  S
C496        C497   1.405       .  A
C497        C498   1.410       .  A
C497        H507   1.084       .  S
C498        C499   1.404       .  A
C499        H508   1.084       .  S
C500        C501   1.410       .  A
C500        H509   1.085       .  S
C501        C502   1.407       .  A
C502        H510   1.084       .  S
C511        C512   1.399       .  A
C511        C516   1.403       .  A
C511        H527   1.083       .  S
C512        C513   1.404       .  A
C512        H528   1.084       .  S
C513        C523   1.399       .  A
C513        C514   1.407       .  A
C514        C520   1.415       .  A
C514        C515   1.412       .  A
C515        C517   1.408       .  A
C515        C516   1.415       .  A
C516        C524   1.408       .  A
C517        C526   1.399       .  A
C517        C518   1.404       .  A
C518        C519   1.399       .  A
C518        H529   1.084       .  S
C519        C520   1.403       .  A
C519        H530   1.083       .  S
C520        C521   1.407       .  A
C521        C522   1.403       .  A
C521        H531   1.084       .  S
C522        C523   1.410       .  A
C523        H532   1.084       .  S
C524        C525   1.405       .  A
C524        H533   1.084       .  S
C525        C526   1.410       .  A
C526        H534   1.085       .  S
C535        C536   1.406       .  A
C535        C540   1.407       .  A
C535        H551   1.083       .  S
C536        C537   1.406       .  A
C536        H552   1.084       .  S
C537        C547   1.414       .  A
C537        C538   1.413       .  A
C538        C544   1.411       .  A
C538        C539   1.414       .  A
C539        C541   1.410       .  A
C539        C540   1.412       .  A
C540        C548   1.415       .  A
C541        C550   1.398       .  A
C541        C542   1.401       .  A
C542        C543   1.394       .  A
C542        H553   1.080       .  S
C543        C544   1.401       .  A
C543        H554   1.084       .  S
C544        C545   1.395       .  A
C545        C546   1.403       .  A
C545        H555   1.086       .  S
C546        C547   1.408       .  A
C547        H556   1.083       .  S
C548        C549   1.409       .  A
C548        H557   1.083       .  S
C549        C550   1.404       .  A
C550        H558   1.084       .  S
C559        C560   1.392       .  A
C559        C564   1.399       .  A
C559        H575   1.082       .  S
C560        C561   1.401       .  A
C560        H576   1.083       .  S
C561        C571   1.390       .  A
C561        C562   1.409       .  A
C562        C568   1.414       .  A
C562        C563   1.410       .  A
C563        C565   1.411       .  A
C563        C564   1.411       .  A
C564        C572   1.393       .  A
C565        C574   1.412       .  A
C565        C566   1.407       .  A
C566        C567   1.405       .  A
C566        H577   1.083       .  S
C567        C568   1.406       .  A
C567        H578   1.084       .  S
C568        C569   1.413       .  A
C569        C570   1.408       .  A
C569        H579   1.084       .  S
C570        C571   1.403       .  A
C571        H580   1.085       .  S
C572        C573   1.398       .  A
C572        H581   1.084       .  S
C573        C574   1.408       .  A
C574        H582   1.082       .  S
C583        C584   1.393       .  A
C583        C588   1.402       .  A
C583        H599   1.084       .  S
C584        C585   1.399       .  A
C584        H600   1.083       .  S
C585        C595   1.395       .  A
C585        C586   1.412       .  A
C586        C592   1.411       .  A
C586        C587   1.409       .  A
C587        C589   1.414       .  A
C587        C588   1.409       .  A
C588        C596   1.391       .  A
C589        C598   1.412       .  A
C589        C590   1.406       .  A
C590        C591   1.404       .  A
C590        H601   1.083       .  S
C591        C592   1.406       .  A
C591        H602   1.084       .  S
C592        C593   1.408       .  A
C593        C594   1.406       .  A
C593        H603   1.078       .  S
C594        C595   1.398       .  A
C595        H604   1.084       .  S
C596        C597   1.404       .  A
C596        H605   1.085       .  S
C597        C598   1.408       .  A
C598        H606   1.084       .  S
C607        C608   1.396       .  A
C607        C612   1.403       .  A
C607        H623   1.084       .  S
C608        C609   1.401       .  A
C608        H624   1.084       .  S
C609        C619   1.404       .  A
C609        C610   1.415       .  A
C610        C616   1.408       .  A
C610        C611   1.414       .  A
C611        C613   1.415       .  A
C611        C612   1.406       .  A
C612        C620   1.396       .  A
C613        C622   1.416       .  A
C613        C614   1.406       .  A
C614        C615   1.405       .  A
C614        H625   1.083       .  S
C615        C616   1.407       .  A
C615        H626   1.084   1_554  S
C616        C617   1.407       .  A
C617        C618   1.411       .  A
C617        H627   1.082       .  S
C618        C619   1.402       .  A
C619        H628   1.085       .  S
C620        C621   1.411       .  A
C620        H629   1.084       .  S
C621        C622   1.410       .  A
C622        H630   1.084       .  S
C631        C632   1.398       .  A
C631        C636   1.404       .  A
C631        H647   1.084       .  S
C632        C633   1.402       .  A
C632        H648   1.083       .  S
C633        C643   1.407       .  A
C633        C634   1.416       .  A
C634        C640   1.407       .  A
C634        C635   1.413       .  A
C635        C637   1.416       .  A
C635        C636   1.406       .  A
C636        C644   1.397       .  A
C637        C646   1.413       .  A
C637        C638   1.404       .  A
C638        C639   1.402       .  A
C638        H649   1.083       .  S
C639        C640   1.405       .  A
C639        H650   1.084       .  S
C640        C641   1.402       .  A
C641        C642   1.411       .  A
C641        H651   1.084       .  S
C642        C643   1.403       .  A
C643        H652   1.084       .  S
C644        C645   1.412       .  A
C644        H653   1.084       .  S
C645        C646   1.406       .  A
C646        H654   1.084       .  S
C655        C656   1.399       .  A
C655        C660   1.403       .  A
C655        H671   1.083       .  S
C656        C657   1.404       .  A
C656        H672   1.084       .  S
C657        C667   1.399       .  A
C657        C658   1.407       .  A
C658        C664   1.416       .  A
C658        C659   1.415       .  A
C659        C661   1.407       .  A
C659        C660   1.415       .  A
C660        C668   1.409       .  A
C661        C670   1.403       .  A
C661        C662   1.405       .  A
C662        C663   1.402       .  A
C662        H673   1.084       .  S
C663        C664   1.404       .  A
C663        H674   1.083       .  S
C664        C665   1.412       .  A
C665        C666   1.407       .  A
C665        H675   1.084       .  S
C666        C667   1.411       .  A
C667        H676   1.084       .  S
C668        C669   1.404       .  A
C668        H677   1.084       .  S
C669        C670   1.412       .  A
C670        H678   1.084       .  S
C679        C680   1.405       .  A
C679        C684   1.406       .  A
C679        H695   1.084       .  S
C680        C681   1.406       .  A
C680        H696   1.084       .  S
C681        C691   1.413       .  A
C681        C682   1.414       .  A
C682        C688   1.410       .  A
C682        C683   1.413       .  A
C683        C685   1.411       .  A
C683        C684   1.413       .  A
C684        C692   1.412       .  A
C685        C694   1.398       .  A
C685        C686   1.402       .  A
C686        C687   1.395       .  A
C686        H697   1.084       .  S
C687        C688   1.402       .  A
C687        H698   1.084       .  S
C688        C689   1.396       .  A
C689        C690   1.404       .  A
C689        H699   1.086       .  S
C690        C691   1.407       .  A
C691        H700   1.083       .  S
C692        C693   1.407       .  A
C692        H701   1.083       .  S
C693        C694   1.404       .  A
C694        H702   1.085       .  S
C703        C704   1.395       .  A
C703        C708   1.401       .  A
C703        H719   1.084       .  S
C704        C705   1.402       .  A
C704        H720   1.082       .  S
C705        C715   1.396       .  A
C705        C706   1.410       .  A
C706        C712   1.414       .  A
C706        C707   1.413       .  A
C707        C709   1.412       .  A
C707        C708   1.412       .  A
C708        C716   1.398       .  A
C709        C718   1.412       .  A
C709        C710   1.407       .  A
C710        C711   1.405       .  A
C710        H721   1.084       .  S
C711        C712   1.406       .  A
C711        H722   1.084       .  S
C712        C713   1.414       .  A
C713        C714   1.408       .  A
C713        H723   1.084       .  S
C714        C715   1.405       .  A
C715        H724   1.084       .  S
C716        C717   1.402       .  A
C716        H725   1.085       .  S
C717        C718   1.407       .  A
C718        H726   1.081       .  S
C727        C728   1.399       .  A
C727        C732   1.404       .  A
C727        H743   1.084       .  S
C728        C729   1.403       .  A
C728        H744   1.084       .  S
C729        C739   1.407       .  A
C729        C730   1.415       .  A
C730        C736   1.408       .  A
C730        C731   1.413       .  A
C731        C733   1.415       .  A
C731        C732   1.407       .  A
C732        C740   1.398       .  A
C733        C742   1.410       .  A
C733        C734   1.403       .  A
C734        C735   1.400       .  A
C734        H745   1.083       .  S
C735        C736   1.404       .  A
C735        H746   1.084       .  S
C736        C737   1.400       .  A
C737        C738   1.409       .  A
C737        H747   1.085       .  S
C738        C739   1.404       .  A
C739        H748   1.084       .  S
C740        C741   1.411       .  A
C740        H749   1.084       .  S
C741        C742   1.405       .  A
C742        H750   1.084       .  S
