geometry optimzed in LAMMPS
_audit_creation_date              2020-11-30 
_audit_creation_method            'lammps2cif' 
_symmetry_space_group_name_H-M    'P1' 
_symmetry_Int_Tables_number       1 
_symmetry_cell_setting            triclinic 
loop_ 
_symmetry_equiv_pos_as_xyz 
  x,y,z 
_cell_length_a                    26.89318144 
_cell_length_b                    26.911315090964035 
_cell_length_c                    26.892848701013236 
_cell_angle_alpha                 89.697941012969 
_cell_angle_beta                  90.03308940080794 
_cell_angle_gamma                 90.06461114417435 
loop_ 
_atom_site_label 
_atom_site_type_symbol 
_atom_site_fract_x 
_atom_site_fract_y 
_atom_site_fract_z 
_atom_site_charge 
Fe1        Fe  0.57503790  0.86892586  0.17622110     1.65800
Fe2        Fe  0.68387800  0.91495467  0.13979335     1.73200
Fe3        Fe  0.63153654  0.82182372  0.07707395     1.54400
O4          O  0.59554768  0.76611819  0.12013685    -0.81500
O5          O  0.67398585  0.94306289  0.07023801    -0.79900
O6          O  0.58997874  0.79790967  0.19631470    -0.84100
O7          O  0.52386416  0.84386362  0.12260516    -0.78900
O8          O  0.69799281  0.79406329  0.10015738    -0.80700
O9          O  0.63552525  0.97060610  0.16715792    -0.83400
C10         C  0.52500537  0.84148986  0.07522082     0.97300
C11         C  0.58684171  0.76162479  0.16679647     1.04800
O12         O  0.63033851  0.86852839  0.13081188    -1.12400
O13         O  0.69582281  0.88859989  0.20988678    -0.74800
O14         O  0.61819256  0.89421766  0.23638952    -0.78300
O15         O  0.56510770  0.84756238  0.05160175    -0.79000
C16         C  0.66494628  0.89631058  0.24434700     0.96200
O17         O  0.55948794  0.94002376  0.15673651    -0.77000
O18         O  0.73816537  0.86494697  0.11321384    -0.82200
C19         C  0.67667428  0.91895456  0.03010468     0.98900
C20         C  0.73801850  0.81846497  0.10336063     1.04800
O21         O  0.66758510  0.87227078  0.02814562    -0.77800
C22         C  0.58814346  0.97571754  0.16720433     1.03100
Fe23       Fe  0.92315608  0.13381335  0.67458328     1.65800
Fe24       Fe  0.81837759  0.08359728  0.63541536     1.73200
Fe25       Fe  0.86654119  0.18023734  0.57485090     1.54400
O26         O  0.90304043  0.23604698  0.61716827    -0.81500
O27         O  0.83198300  0.05813791  0.56590617    -0.79900
O28         O  0.90336032  0.20387724  0.69300412    -0.84100
O29         O  0.97412179  0.16007425  0.62019154    -0.78900
O30         O  0.79989951  0.20545391  0.59992811    -0.80700
O31         O  0.86827431  0.02935081  0.66392154    -0.83400
C32         C  0.97342020  0.16172354  0.57258510     0.97300
C33         C  0.91131904  0.24000822  0.66385791     1.04800
O34         O  0.86951360  0.13221787  0.62790886    -1.12400
O35         O  0.80325666  0.10888320  0.70465781    -0.74800
O36         O  0.87952378  0.10628753  0.73478056    -0.78300
O37         O  0.93315893  0.15594228  0.54879987    -0.79000
C38         C  0.83256328  0.10149814  0.74060170     0.96200
O39         O  0.94279889  0.06366888  0.65648519    -0.77000
O40         O  0.76281877  0.13203006  0.60860438    -0.82200
C41         C  0.82251213  0.08332467  0.52717755     0.98900
C42         C  0.76095666  0.17909854  0.60187292     1.04800
O43         O  0.82971039  0.13036099  0.52608668    -0.77800
C44         C  0.91574508  0.02639153  0.66623783     1.03100
Fe45       Fe  0.31691795  0.41741563  0.36489656     1.65800
Fe46       Fe  0.42613275  0.37396004  0.32853721     1.73200
Fe47       Fe  0.36555807  0.31777460  0.42092947     1.54400
O48         O  0.32872672  0.36480411  0.47186809    -0.81500
O49         O  0.41362815  0.30413898  0.30324756    -0.79900
O50         O  0.32778714  0.43971383  0.43590933    -0.84100
O51         O  0.26183099  0.36710433  0.38891070    -0.78900
O52         O  0.43133044  0.33903999  0.45178906    -0.80700
O53         O  0.38365261  0.40214517  0.26863286    -0.83400
C54         C  0.26039220  0.31988024  0.39369316     0.97300
C55         C  0.32236695  0.41195673  0.47366621     1.04800
O56         O  0.36958321  0.36948489  0.37158769    -1.12400
O57         O  0.43982478  0.44378110  0.35345985    -0.74800
O58         O  0.36493058  0.47454560  0.33932892    -0.78300
O59         O  0.29949864  0.29392845  0.39230207    -0.79000
C60         C  0.41219639  0.47919873  0.33963962     0.96200
O61         O  0.30533721  0.39542297  0.29378835    -0.77000
O62         O  0.47546502  0.34648231  0.38262559    -0.82200
C63         C  0.41634459  0.26535913  0.33000253     0.98900
C64         C  0.47263115  0.33809918  0.42926802     1.04800
O65         O  0.40305128  0.26565452  0.37568679    -0.77800
C66         C  0.33690219  0.40440667  0.26012482     1.03100
Fe67       Fe  0.18061523  0.58045370  0.86688783     1.65800
Fe68       Fe  0.07620212  0.63034482  0.82408755     1.73200
Fe69       Fe  0.13413479  0.68077680  0.92124198     1.54400
O70         O  0.16811219  0.63209716  0.97322285    -0.81500
O71         O  0.09489314  0.69975149  0.80080517    -0.79900
O72         O  0.16545079  0.55801894  0.93750353    -0.84100
O73         O  0.23716263  0.62761216  0.89338169    -0.78900
O74         O  0.06592632  0.66124461  0.94803173    -0.80700
O75         O  0.12022930  0.59973522  0.76636100    -0.83400
C76         C  0.24035954  0.67445674  0.89969229     0.97300
C77         C  0.17525836  0.58511568  0.97465299     1.04800
O78         O  0.13010166  0.63045744  0.87103841    -1.12400
O79         O  0.05617982  0.56096441  0.84610154    -0.74800
O80         O  0.13065572  0.52651144  0.83943186    -0.78300
O81         O  0.20236800  0.70203729  0.89615132    -0.76600
C82         C  0.08325295  0.52393344  0.83656229     0.96200
O83         O  0.19661149  0.60294860  0.79653849    -0.77000
O84         O  0.02525270  0.65937779  0.87620308    -0.82200
C85         C  0.09304631  0.73780348  0.82809394     0.98900
C86         C  0.02579675  0.66456170  0.92345944     1.04800
O87         O  0.10146282  0.73541673  0.87489768    -0.77800
C88         C  0.16706404  0.59337204  0.76126745     1.03100
C89         C  0.23041632  0.55625086  0.10335922    -0.22300
C90         C  0.25307910  0.51034428  0.09382809     0.09600
C91         C  0.25079353  0.49001410  0.04587410     0.10000
C92         C  0.22439912  0.51513093  0.00876026    -0.17300
C93         C  0.20051611  0.56085654  0.01778220    -0.27700
C94         C  0.20464277  0.58224840  0.06574736     0.18400
C95         C  0.27656985  0.48221083  0.13492111     0.12300
C96         C  0.27682841  0.44197382  0.03366693    -0.12000
H97         H  0.22328656  0.49893699  0.97196630     0.12600
C98         C  0.18176545  0.63175403  0.07800824    -0.22900
H99         H  0.23269145  0.57155680  0.14051748     0.08300
C100        C  0.32464474  0.49349003  0.15240321     0.04600
C101        C  0.34514675  0.46474092  0.19097410    -0.20100
C102        C  0.31834567  0.42529519  0.21267294    -0.12400
C103        C  0.27088799  0.41281612  0.19338580     0.13300
C104        C  0.25069119  0.44160468  0.15484626    -0.22800
C105        C  0.35403972  0.53595779  0.13064258    -0.05900
H106        H  0.38122795  0.47479079  0.20591108     0.14800
C107        C  0.24137741  0.36901628  0.21259422    -0.16100
H108        H  0.21418016  0.43268151  0.14024543     0.09200
H109        H  0.18687719  0.64133309  0.11781493     0.07000
H110        H  0.14122274  0.63083383  0.07024594     0.08200
H111        H  0.19970178  0.66154896  0.05563667     0.07300
H112        H  0.26116409  0.41110942  0.05626122     0.02100
H113        H  0.31717678  0.44558344  0.04169880     0.02600
H114        H  0.27254757  0.43204549  0.99386151     0.06100
H115        H  0.39127606  0.53888696  0.14812722     0.05100
H116        H  0.33404593  0.57147528  0.13669319    -0.00700
H117        H  0.35927086  0.53020382  0.09013223     0.00800
H118        H  0.22835314  0.37581994  0.25106116     0.04500
H119        H  0.26465052  0.33498293  0.21166279     0.06400
H120        H  0.20778777  0.36209374  0.18957659     0.07300
C121        C  0.18559880  0.53477906  0.63266166    -0.22300
C122        C  0.23188898  0.51174775  0.63968075     0.09600
C123        C  0.25661487  0.51646545  0.68547217     0.10000
C124        C  0.23495431  0.54477720  0.72305101    -0.17300
C125        C  0.18833277  0.56806156  0.71685349    -0.27700
C126        C  0.16305916  0.56239738  0.67090029     0.18400
C127        C  0.25535504  0.48459551  0.59814952     0.12300
C128        C  0.30546533  0.49063430  0.69517071    -0.12000
H129        H  0.25441215  0.54741081  0.75823716     0.12600
C130        C  0.11286822  0.58535640  0.66148917    -0.22900
H131        H  0.16702944  0.53093579  0.59708543     0.08300
C132        C  0.24052209  0.43613689  0.58487619     0.04600
C133        C  0.26504670  0.41198684  0.54575443    -0.20100
C134        C  0.30372982  0.43548221  0.51951519    -0.12400
C135        C  0.31942069  0.48359556  0.53399470     0.13300
C136        C  0.29492924  0.50742981  0.57311586    -0.22800
C137        C  0.19899168  0.41001454  0.61199942    -0.05900
H138        H  0.25270233  0.37539718  0.53439759     0.14800
C139        C  0.36243122  0.50984818  0.50910556    -0.16100
H140        H  0.30651289  0.54435516  0.58424409     0.09200
H141        H  0.10015803  0.57920961  0.62269355     0.07000
H142        H  0.11471323  0.62606545  0.66776141     0.08200
H143        H  0.08475474  0.56836635  0.68655259     0.07300
H144        H  0.33430772  0.50475109  0.66921107     0.02100
H145        H  0.30092028  0.44998104  0.68990723     0.02600
H146        H  0.31897189  0.49691704  0.73366940     0.06100
H147        H  0.19232826  0.37215232  0.59712000     0.05100
H148        H  0.16401307  0.43153602  0.60808282    -0.00700
H149        H  0.20856772  0.40649939  0.65202322     0.00800
H150        H  0.37221874  0.54491007  0.52842595     0.04500
H151        H  0.35285346  0.51983982  0.47021413     0.06400
H152        H  0.39575349  0.48552420  0.50959622     0.07300
C153        C  0.59787535  0.28227599  0.46616611    -0.22300
C154        C  0.59199061  0.27837433  0.51777392     0.09600
C155        C  0.54975227  0.29906415  0.54053425     0.10000
C156        C  0.51345722  0.32183685  0.51073060    -0.17300
C157        C  0.51732472  0.32288424  0.45838474    -0.27700
C158        C  0.56074012  0.30305045  0.43591484     0.18400
C159        C  0.63020335  0.25095845  0.54648672     0.12300
C160        C  0.54175999  0.29505375  0.59588225    -0.12000
H161        H  0.48068217  0.33693177  0.52853870     0.12600
C162        C  0.56760986  0.30078620  0.38030218    -0.22900
H163        H  0.63100093  0.26680210  0.44927699     0.08300
C164        C  0.63660542  0.19922791  0.54080900     0.04600
C165        C  0.67774586  0.17598666  0.56286042    -0.20100
C166        C  0.71289446  0.20331364  0.59006647    -0.12400
C167        C  0.70405070  0.25449532  0.59909397     0.13300
C168        C  0.66282532  0.27762166  0.57693274    -0.22800
C169        C  0.60052822  0.16860868  0.51083493    -0.05900
H170        H  0.68399914  0.13679372  0.55620203     0.14800
C171        C  0.73767813  0.28521314  0.63175421    -0.16100
H172        H  0.65721044  0.31720037  0.58156805     0.09200
H173        H  0.53747864  0.27821832  0.36338656     0.07000
H174        H  0.60348100  0.28321019  0.36998188     0.08200
H175        H  0.56752598  0.33889195  0.36432154     0.07300
H176        H  0.57183533  0.31485984  0.61591439     0.02100
H177        H  0.54168272  0.25533903  0.60730721     0.02600
H178        H  0.50575591  0.31163458  0.60731034     0.06100
H179        H  0.61020643  0.12849783  0.51175649     0.05100
H180        H  0.60073375  0.18078898  0.47137982    -0.00700
H181        H  0.56247205  0.17284927  0.52621111     0.00800
H182        H  0.77438671  0.29078400  0.61381443     0.04500
H183        H  0.74251911  0.26650614  0.66833615     0.06400
H184        H  0.72190914  0.32268609  0.63863850     0.07300
C185        C  0.10401544  0.20537199  0.53470554    -0.22300
C186        C  0.09606311  0.21661181  0.48434059     0.09600
C187        C  0.05048301  0.20400571  0.46208053     0.10000
C188        C  0.01274514  0.18313979  0.49142138    -0.17300
C189        C  0.01875036  0.17527255  0.54309832    -0.27700
C190        C  0.06599692  0.18517104  0.56458433     0.18400
C191        C  0.13472818  0.24471748  0.45665463     0.12300
C192        C  0.04079262  0.21455386  0.40781652    -0.12000
H193        H  0.97744573  0.17506007  0.47382791     0.12600
C194        C  0.07691289  0.17575067  0.61879154    -0.22900
H195        H  0.13967411  0.21441554  0.55113522     0.08300
C196        C  0.14299196  0.29564756  0.46588362     0.04600
C197        C  0.18206873  0.32022247  0.44154197    -0.20100
C198        C  0.21334828  0.29505721  0.40830996    -0.12400
C199        C  0.20268908  0.24487357  0.39635705     0.13300
C200        C  0.16356486  0.22029076  0.42094254    -0.22800
C201        C  0.11089086  0.32405888  0.50180329    -0.05900
H202        H  0.18985873  0.35859518  0.45069790     0.14800
C203        C  0.23180300  0.21713149  0.35745026    -0.16100
H204        H  0.15616309  0.18152829  0.41321537     0.09200
H205        H  0.05384827  0.20045239  0.64228797     0.07000
H206        H  0.11644372  0.18340425  0.62801741     0.08200
H207        H  0.06931846  0.13622147  0.62812731     0.07300
H208        H  0.06731213  0.19336346  0.38453519     0.02100
H209        H  0.04532854  0.25489660  0.40019350     0.02600
H210        H  0.00254977  0.20366369  0.39665717     0.06100
H211        H  0.12172058  0.36384877  0.50366768     0.05100
H212        H  0.11447427  0.30809673  0.53975163    -0.00700
H213        H  0.07142474  0.32204905  0.48980868     0.00800
H214        H  0.27055327  0.21080180  0.37002799     0.04500
H215        H  0.23188547  0.23864598  0.32209471     0.06400
H216        H  0.21525640  0.18011041  0.34981394     0.07300
C217        C  0.96402923  0.37080060  0.68666642    -0.22300
C218        C  0.98672685  0.36326123  0.73312957     0.09600
C219        C  0.98453555  0.31629444  0.75599699     0.10000
C220        C  0.95903955  0.27792588  0.73240983    -0.17300
C221        C  0.93563003  0.28465055  0.68586429    -0.27700
C222        C  0.93877681  0.33186986  0.66236255     0.18400
C223        C  0.01179933  0.40485996  0.75861692     0.12300
C224        C  0.00969735  0.30640551  0.80523483    -0.12000
H225        H  0.95831110  0.24192137  0.75060362     0.12600
C226        C  0.91548945  0.34185091  0.61237709    -0.22900
H227        H  0.96617210  0.40724907  0.66946182     0.08300
C228        C  0.06173087  0.41722272  0.74866546     0.04600
C229        C  0.08497171  0.45429117  0.77689277    -0.20100
C230        C  0.05923226  0.47959157  0.81461005    -0.12400
C231        C  0.00914616  0.46638810  0.82491198     0.13300
C232        C  0.98628328  0.42902329  0.79682284    -0.22800
C233        C  0.09037182  0.39132292  0.70828422    -0.05900
H234        H  0.12288452  0.46482635  0.76809723     0.14800
C235        C  0.97953314  0.49067864  0.86575499    -0.16100
H236        H  0.94823395  0.41832404  0.80473073     0.09200
H237        H  0.93354186  0.31856251  0.58364341     0.07000
H238        H  0.91998154  0.38130181  0.60085730     0.08200
H239        H  0.87507001  0.33351256  0.61386570     0.07300
H240        H  0.99347798  0.33051417  0.83436657     0.02100
H241        H  0.05011979  0.31421074  0.80201141     0.02600
H242        H  0.00516341  0.26717700  0.81746450     0.06100
H243        H  0.12910168  0.40540489  0.70554193     0.05100
H244        H  0.07187865  0.39755549  0.67186814    -0.00700
H245        H  0.09188911  0.35081789  0.71617659     0.00800
H246        H  0.94305552  0.47209938  0.87142728     0.04500
H247        H  0.97168645  0.53004270  0.85622346     0.06400
H248        H  0.00038685  0.48851585  0.90134318     0.07300
C249        C  0.94420230  0.89874574  0.72413220    -0.22300
C250        C  0.99551266  0.90343503  0.73248669     0.09600
C251        C  0.02056600  0.94624739  0.71564539     0.10000
C252        C  0.99362699  0.98376288  0.69166353    -0.17300
C253        C  0.94157649  0.98079756  0.68505949    -0.27700
C254        C  0.91665407  0.93706605  0.70127051     0.18400
C255        C  0.02262652  0.86307662  0.75866739     0.12300
C256        C  0.07551032  0.95347909  0.72461750    -0.12000
H257        H  0.01369119  0.01657907  0.67960617     0.12600
C258        C  0.86131194  0.93032517  0.69560812    -0.22900
H259        H  0.92550219  0.86521543  0.73650860     0.08300
C260        C  0.01600107  0.85359930  0.80994088     0.04600
C261        C  0.04233953  0.81450124  0.83255941    -0.20100
C262        C  0.07494459  0.78453076  0.80503595    -0.12400
C263        C  0.08338803  0.79590485  0.75414349     0.13300
C264        C  0.05668381  0.83465919  0.73165225    -0.22800
C265        C  0.98113047  0.88454553  0.84079152    -0.05900
H266        H  0.03558801  0.80586242  0.87137312     0.14800
C267        C  0.12087217  0.76804948  0.72321300    -0.16100
H268        H  0.06190842  0.84254350  0.69244374     0.09200
H269        H  0.84891295  0.89318518  0.70890668     0.07000
H270        H  0.85077091  0.93374555  0.65581255     0.08200
H271        H  0.84130012  0.95853683  0.71793438     0.07300
H272        H  0.09716336  0.92479548  0.70464761     0.02100
H273        H  0.08349736  0.95085909  0.76506147     0.02600
H274        H  0.08858913  0.99036397  0.71126385     0.06100
H275        H  0.98150260  0.87295236  0.88049444     0.05100
H276        H  0.94248945  0.88058798  0.82690197    -0.00700
H277        H  0.99236646  0.92421611  0.83870578     0.00800
H278        H  0.12618725  0.78569482  0.68615642     0.04500
H279        H  0.10825693  0.72941342  0.71658150     0.06400
H280        H  0.15745059  0.76777344  0.74238908     0.07300
C281        C  0.75227411  0.93253598  0.34920172    -0.22300
C282        C  0.72507063  0.97093365  0.37116130     0.09600
C283        C  0.67579098  0.97998660  0.35576804     0.10000
C284        C  0.65569619  0.95205544  0.31667097    -0.17300
C285        C  0.68394658  0.91554106  0.29231219    -0.27700
C286        C  0.73243440  0.90455547  0.31003852     0.18400
C287        C  0.74898491  0.00037841  0.41093809     0.12300
C288        C  0.64466578  0.01936102  0.38030001    -0.12000
H289        H  0.61861403  0.96072705  0.30338872     0.12600
C290        C  0.76353629  0.86337888  0.28835113    -0.22900
H291        H  0.78971086  0.92512151  0.36226449     0.08300
C292        C  0.75462405  0.98060108  0.45904165     0.04600
C293        C  0.77948036  0.00842970  0.49510016    -0.20100
C294        C  0.79870529  0.05629721  0.48489827    -0.12400
C295        C  0.79197253  0.07651468  0.43648964     0.13300
C296        C  0.76757216  0.04796072  0.40004434    -0.22800
C297        C  0.73360887  0.93034826  0.47263263    -0.05900
H298        H  0.78303513  0.99251850  0.53201632     0.14800
C299        C  0.81038446  0.12758951  0.42253663    -0.16100
H300        H  0.76288562  0.06274659  0.36275662     0.09200
H301        H  0.79796770  0.85702017  0.31031195     0.07000
H302        H  0.77525820  0.87286025  0.24993866     0.08200
H303        H  0.74196233  0.82817208  0.28835000     0.07300
H304        H  0.66250732  0.05628050  0.37554970     0.02100
H305        H  0.64102450  0.01094948  0.42059668     0.02600
H306        H  0.60673333  0.02130986  0.36403376     0.06100
H307        H  0.74015469  0.92096397  0.51236687     0.05100
H308        H  0.75132419  0.90109358  0.44977442    -0.00700
H309        H  0.69285682  0.93006407  0.46596267     0.00800
H310        H  0.80338891  0.13623474  0.38270690     0.04500
H311        H  0.85107810  0.13010172  0.42905431     0.06400
H312        H  0.79075842  0.15606063  0.44485404     0.07300
C313        C  0.81177234  0.05412355  0.87422412    -0.22300
C314        C  0.76560951  0.03027279  0.86854103     0.09600
C315        C  0.74076764  0.03303350  0.82262390     0.10000
C316        C  0.76305532  0.05832531  0.78297830    -0.17300
C317        C  0.81025254  0.08093888  0.78730431    -0.27700
C318        C  0.83458818  0.07939923  0.83409056     0.18400
C319        C  0.74366925  0.00143045  0.91031079     0.12300
C320        C  0.69115866  0.00797608  0.81493875    -0.12000
H321        H  0.74373854  0.05870815  0.74761548     0.12600
C322        C  0.88398339  0.10444819  0.84228895    -0.22900
H323        H  0.83030725  0.05221233  0.90997847     0.08300
C324        C  0.75763195  0.95171882  0.91976498     0.04600
C325        C  0.73315915  0.92459013  0.95731441    -0.20100
C326        C  0.69515856  0.94618568  0.98575249    -0.12400
C327        C  0.68036504  0.99572897  0.97522083     0.13300
C328        C  0.70487186  0.02263841  0.93764222    -0.22800
C329        C  0.79826582  0.92736124  0.89008370    -0.05900
H330        H  0.74493138  0.88696971  0.96565425     0.14800
C331        C  0.63792715  0.02012856  0.00245751    -0.16100
H332        H  0.69353462  0.06036391  0.92917628     0.09200
H333        H  0.91308227  0.08634509  0.81947811     0.07000
H334        H  0.89589446  0.10194969  0.88177905     0.08200
H335        H  0.88124620  0.14440471  0.83212684     0.07300
H336        H  0.66312933  0.02401879  0.84049635     0.02100
H337        H  0.69463492  0.96751058  0.82240622     0.02600
H338        H  0.67727982  0.01286583  0.77631850     0.06100
H339        H  0.80447181  0.88828001  0.90201233     0.05100
H340        H  0.83364148  0.94805626  0.89503536    -0.00700
H341        H  0.78813344  0.92735492  0.85004806     0.00800
H342        H  0.64769904  0.02593763  0.04206414     0.04500
H343        H  0.60413333  0.99652345  0.99987877     0.06400
H344        H  0.62884060  0.05712659  0.98638663     0.07300
C345        C  0.44271344  0.60921380  0.28975736    -0.22300
C346        C  0.48605569  0.59879804  0.26256753     0.09600
C347        C  0.50510412  0.55017284  0.26212083     0.10000
C348        C  0.48047253  0.51289281  0.28875029    -0.17300
C349        C  0.43681174  0.52260460  0.31587587    -0.27700
C350        C  0.41757272  0.57150859  0.31633998     0.18400
C351        C  0.51254836  0.63928494  0.23612310     0.12300
C352        C  0.55115140  0.53741568  0.23288128    -0.12000
H353        H  0.49501720  0.47536499  0.28728897     0.12600
C354        C  0.37172528  0.58437036  0.34566482    -0.22900
H355        H  0.42868232  0.64695225  0.29020649     0.08300
C356        C  0.49802541  0.65555014  0.18831148     0.04600
C357        C  0.52539613  0.69327863  0.16452221    -0.20100
C358        C  0.56693147  0.71486668  0.18762546    -0.12400
C359        C  0.58268862  0.69680817  0.23459313     0.13300
C360        C  0.55513747  0.65934163  0.25828708    -0.22800
C361        C  0.45389036  0.63294485  0.16246613    -0.05900
H362        H  0.51304281  0.70746127  0.12881959     0.14800
C363        C  0.62895588  0.71631426  0.25958741    -0.16100
H364        H  0.56674300  0.64557662  0.29440576     0.09200
H365        H  0.33897495  0.56455416  0.33035338     0.07000
H366        H  0.36367012  0.62482015  0.34407403     0.08200
H367        H  0.37703979  0.57370616  0.38526059     0.07300
H368        H  0.58342110  0.55875530  0.24716528     0.02100
H369        H  0.54534114  0.54667027  0.19301884     0.02600
H370        H  0.56035924  0.49727559  0.23568161     0.06100
H371        H  0.44744731  0.65001230  0.12532083     0.05100
H372        H  0.41986966  0.63828400  0.18517194    -0.00700
H373        H  0.46054831  0.59263352  0.15727308     0.00800
H374        H  0.63774035  0.69515397  0.29405269     0.04500
H375        H  0.62411962  0.75574984  0.27024691     0.06400
H376        H  0.66114808  0.71291477  0.23398802     0.07300
C377        C  0.49304133  0.07541251  0.19836623    -0.22300
C378        C  0.51776045  0.10052561  0.23644106     0.09600
C379        C  0.56716536  0.08781634  0.24845468     0.10000
C380        C  0.59040708  0.04891372  0.22284621    -0.17300
C381        C  0.56510652  0.02209440  0.18584020    -0.27700
C382        C  0.51583348  0.03628538  0.17287329     0.18400
C383        C  0.49187762  0.14218105  0.26089039     0.12300
C384        C  0.59500584  0.11495536  0.28864784    -0.12000
H385        H  0.62778720  0.03804421  0.23338764     0.12600
C386        C  0.48683187  0.01104235  0.13206339    -0.22900
H387        H  0.45542587  0.08643178  0.18882360     0.08300
C388        C  0.49315432  0.18999328  0.23979410     0.04600
C389        C  0.46736242  0.22849103  0.26295065    -0.20100
C390        C  0.43981634  0.22075515  0.30702353    -0.12400
C391        C  0.43829720  0.17222514  0.32793010     0.13300
C392        C  0.46432668  0.13349826  0.30435896    -0.22800
C393        C  0.52194330  0.20043436  0.19274915    -0.05900
H394        H  0.46962270  0.26523267  0.24651332     0.14800
C395        C  0.40912241  0.16049206  0.37433430    -0.16100
H396        H  0.46329627  0.09626825  0.31982267     0.09200
H397        H  0.50915007  0.01048249  0.09734835     0.07000
H398        H  0.45147550  0.03075242  0.12382624     0.08200
H399        H  0.47675547  0.97261111  0.14326453     0.07300
H400        H  0.57519307  0.11059644  0.32461498     0.02100
H401        H  0.59756872  0.15506594  0.27917027     0.02600
H402        H  0.63337896  0.10042695  0.29328550     0.06100
H403        H  0.51934854  0.24006831  0.18134583     0.05100
H404        H  0.50705181  0.17747854  0.16195409    -0.00700
H405        H  0.56180372  0.19138904  0.19846834     0.00800
H406        H  0.41016662  0.12021908  0.38352141     0.04500
H407        H  0.36959856  0.17120572  0.36903140     0.06400
H408        H  0.42509817  0.18072462  0.40645889     0.07300
C409        C  0.82999169  0.71705716  0.06821610    -0.22300
C410        C  0.86465568  0.74472740  0.04080095     0.09600
C411        C  0.86172253  0.79713300  0.04078124     0.10000
C412        C  0.82192114  0.82048528  0.06501000    -0.17300
C413        C  0.78488782  0.79273265  0.08942664    -0.27700
C414        C  0.79044860  0.74028298  0.09305965     0.18400
C415        C  0.90292328  0.71830513  0.01114128     0.12300
C416        C  0.90038267  0.82849217  0.01485283    -0.12000
H417        H  0.81836303  0.86053101  0.06246145     0.12600
C418        C  0.75530249  0.70829333  0.12311279    -0.22900
H419        H  0.83304957  0.67691018  0.06889969     0.08300
C420        C  0.94345132  0.69402489  0.03379951     0.04600
C421        C  0.98103186  0.67396875  0.00385163    -0.20100
C422        C  0.97978624  0.67807262  0.95151364    -0.12400
C423        C  0.93739274  0.70010187  0.92887178     0.13300
C424        C  0.89944721  0.71943022  0.95910500    -0.22800
C425        C  0.94822974  0.69103529  0.08958239    -0.05900
H426        H  0.01261696  0.65650415  0.02181267     0.14800
C427        C  0.93229853  0.70552794  0.87327960    -0.16100
H428        H  0.86753659  0.73731093  0.94209332     0.09200
H429        H  0.76890939  0.66944482  0.12629990     0.07000
H430        H  0.71820550  0.70666319  0.10519993     0.08200
H431        H  0.75184174  0.72333247  0.16133135     0.07300
H432        H  0.90023326  0.82088705  0.97435942     0.02100
H433        H  0.93771937  0.81991623  0.03029984     0.02600
H434        H  0.89335898  0.86881650  0.01988711     0.06100
H435        H  0.98320768  0.67232994  0.10112458     0.05100
H436        H  0.91672942  0.66952713  0.10540121    -0.00700
H437        H  0.94823859  0.72902989  0.10547726     0.00800
H438        H  0.89681372  0.72383139  0.86266935     0.04500
H439        H  0.93276132  0.66832220  0.85565336     0.06400
H440        H  0.96307712  0.72874497  0.85837331     0.07300
C441        C  0.43802909  0.80655690  0.96930201    -0.22300
C442        C  0.40409360  0.77582141  0.99420775     0.09600
C443        C  0.40684582  0.77112479  0.04649763     0.10000
C444        C  0.44489049  0.79574333  0.07229548    -0.17300
C445        C  0.48029424  0.82510408  0.04720986    -0.27700
C446        C  0.47545636  0.83206364  0.99501413     0.18400
C447        C  0.36532814  0.74991549  0.96477391     0.12300
C448        C  0.36975763  0.74029298  0.07528538    -0.12000
H449        H  0.44811692  0.79022224  0.11210452     0.12600
C450        C  0.50885341  0.86659190  0.96578682    -0.22900
H451        H  0.43557084  0.81008682  0.92921998     0.08300
C452        C  0.32744206  0.77654164  0.94011331     0.04600
C453        C  0.28996013  0.75040522  0.91532241    -0.20100
C454        C  0.28770979  0.69810155  0.91619975    -0.12400
C455        C  0.32692127  0.67140478  0.93963731     0.13300
C456        C  0.36573434  0.69785980  0.96253400    -0.22800
C457        C  0.32470307  0.83249492  0.94212232    -0.05900
H458        H  0.26062749  0.77137411  0.89722488     0.14800
C459        C  0.32738941  0.61545600  0.94321545    -0.16100
H460        H  0.39570422  0.67779539  0.98064003     0.09200
H461        H  0.49560475  0.87155420  0.92694377     0.07000
H462        H  0.54707994  0.85136860  0.96363292     0.08200
H463        H  0.50946010  0.90379826  0.98345082     0.07300
H464        H  0.37270711  0.70064980  0.06467465     0.02100
H465        H  0.33150993  0.75375593  0.06751281     0.02600
H466        H  0.37619659  0.74255459  0.11601648     0.06100
H467        H  0.29075871  0.84694711  0.92349785     0.05100
H468        H  0.35720513  0.84927403  0.92305460    -0.00700
H469        H  0.32389761  0.84482684  0.98144981     0.00800
H470        H  0.36087195  0.60149247  0.96303655     0.04500
H471        H  0.32752155  0.59915555  0.90538911     0.06400
H472        H  0.29437642  0.60226181  0.96426147     0.07300
loop_ 
_geom_bond_atom_site_label_1 
_geom_bond_atom_site_label_2 
_geom_bond_distance 
_geom_bond_site_symmetry_2 
_ccdc_geom_bond_type 
Fe1          O17   2.025       .  S
Fe1           O7   2.106       .  S
Fe1          O14   2.106       .  S
Fe1           O6   2.024       .  S
Fe1          O12   1.925       .  S
Fe2           O5   2.031       .  S
Fe2           O9   2.120       .  S
Fe2          O13   2.036       .  S
Fe2          O18   2.114       .  S
Fe2          O12   1.921       .  S
Fe3          O21   2.120       .  S
Fe3           O8   2.033       .  S
Fe3          O15   2.034       .  S
Fe3           O4   2.122       .  S
Fe3          O12   1.921       .  S
O4           C11   1.282       .  A
O5           C19   1.264       .  A
O6           C11   1.264       .  A
O7           C10   1.277       .  A
O8           C20   1.263       .  A
O9           C22   1.282       .  A
C10          O15   1.262       .  A
C10         C445   1.486       .  S
C11         C358   1.475       .  S
O13          C16   1.263       .  A
O14          C16   1.277       .  A
C16         C285   1.483       .  S
O17          C22   1.264       .  A
O18          C20   1.280       .  A
C19          O21   1.281       .  A
C19         C326   1.482   1_554  S
C20         C413   1.488       .  S
C22         C381   1.484   1_565  S
Fe23         O39   2.023       .  S
Fe23         O29   2.123       .  S
Fe23         O36   2.129       .  S
Fe23         O28   2.024       .  S
Fe23         O34   1.912       .  S
Fe24         O27   2.028       .  S
Fe24         O31   2.124       .  S
Fe24         O35   2.028       .  S
Fe24         O40   2.108       .  S
Fe24         O34   1.907       .  S
Fe25         O43   2.125       .  S
Fe25         O30   2.034       .  S
Fe25         O37   2.034       .  S
Fe25         O26   2.128       .  S
Fe25         O34   1.922       .  S
O26          C33   1.280       .  A
O27          C41   1.266       .  A
O28          C33   1.264       .  A
O29          C32   1.281       .  A
O30          C42   1.265       .  A
O31          C44   1.281       .  A
C32          O37   1.267       .  A
C32         C189   1.498   1_655  S
C33         C221   1.492       .  S
O35          C38   1.262       .  A
O36          C38   1.279       .  A
C38         C317   1.495       .  S
O39          C44   1.265       .  A
O40          C42   1.280       .  A
C41          O43   1.280       .  A
C41         C294   1.496       .  S
C42         C166   1.482       .  S
C44         C253   1.496   1_545  S
Fe45         O61   2.029       .  S
Fe45         O51   2.105       .  S
Fe45         O58   2.119       .  S
Fe45         O50   2.026       .  S
Fe45         O56   1.924       .  S
Fe46         O49   2.029       .  S
Fe46         O53   2.113       .  S
Fe46         O57   2.031       .  S
Fe46         O62   2.100       .  S
Fe46         O56   1.915       .  S
Fe47         O65   2.118       .  S
Fe47         O52   2.036       .  S
Fe47         O59   2.040       .  S
Fe47         O48   2.117       .  S
Fe47         O56   1.921       .  S
O48          C55   1.282       .  A
O49          C63   1.267       .  A
O50          C55   1.266       .  A
O51          C54   1.277       .  A
O52          C64   1.266       .  A
O53          C66   1.279       .  A
C54          O59   1.264       .  A
C54         C198   1.482       .  S
C55         C134   1.477       .  S
O57          C60   1.263       .  A
O58          C60   1.277       .  A
C60         C349   1.484       .  S
O61          C66   1.264       .  A
O62          C64   1.276       .  A
C63          O65   1.280       .  A
C63         C390   1.494       .  S
C64         C157   1.491       .  S
C66         C102   1.478       .  S
Fe67         O83   2.030       .  S
Fe67         O73   2.106       .  S
Fe67         O80   2.113       .  S
Fe67         O72   2.031       .  S
Fe67         O78   1.917       .  S
Fe68         O71   2.030       .  S
Fe68         O75   2.123       .  S
Fe68         O79   2.028       .  S
Fe68         O84   2.114       .  S
Fe68         O78   1.922       .  S
Fe69         O87   2.114       .  S
Fe69         O74   2.039       .  S
Fe69         O81   2.036       .  S
Fe69         O70   2.118       .  S
Fe69         O78   1.920       .  S
O70          C77   1.279       .  A
O71          C85   1.264       .  A
O72          C77   1.267       .  A
O73          C76   1.276       .  A
O74          C86   1.268       .  A
O75          C88   1.279       .  A
C76          O81   1.267       .  A
C76         C454   1.491       .  S
C77          C93   1.492   1_556  S
O79          C82   1.262       .  A
O80          C82   1.279       .  A
C82         C230   1.482       .  S
O83          C88   1.264       .  A
O84          C86   1.279       .  A
C85          O87   1.280       .  A
C85         C262   1.482       .  S
C86         C422   1.496   1_455  S
C88         C125   1.493       .  S
C89          C90   1.403       .  A
C89          C94   1.409       .  A
C89          H99   1.085       .  S
C90          C95   1.478       .  S
C90          C91   1.405       .  A
C91          C92   1.396       .  A
C91          C96   1.509       .  S
C92          C93   1.411       .  A
C92          H97   1.084   1_554  S
C93          C94   1.420       .  A
C94          C98   1.506       .  S
C95         C100   1.409       .  A
C95         C104   1.399       .  A
C96         H112   1.109       .  S
C96         H113   1.111       .  S
C96         H114   1.111   1_554  S
C98         H109   1.111       .  S
C98         H110   1.110       .  S
C98         H111   1.110       .  S
C100        C101   1.404       .  A
C100        C105   1.505       .  S
C101        C102   1.407       .  A
C101        H106   1.085       .  S
C102        C103   1.418       .  A
C103        C104   1.400       .  A
C103        C107   1.509       .  S
C104        H108   1.084       .  S
C105        H115   1.109       .  S
C105        H116   1.110       .  S
C105        H117   1.110       .  S
C107        H118   1.109       .  S
C107        H119   1.110       .  S
C107        H120   1.111       .  S
C121        C122   1.403       .  A
C121        C126   1.410       .  A
C121        H131   1.084       .  S
C122        C127   1.480       .  S
C122        C123   1.405       .  A
C123        C124   1.397       .  A
C123        C128   1.509       .  S
C124        C125   1.412       .  A
C124        H129   1.084       .  S
C125        C126   1.419       .  A
C126        C130   1.506       .  S
C127        C132   1.411       .  A
C127        C136   1.399       .  A
C128        H144   1.109       .  S
C128        H145   1.110       .  S
C128        H146   1.111       .  S
C130        H141   1.111       .  S
C130        H142   1.110       .  S
C130        H143   1.110       .  S
C132        C133   1.405       .  A
C132        C137   1.506       .  S
C133        C134   1.405       .  A
C133        H138   1.084       .  S
C134        C135   1.418       .  A
C135        C136   1.400       .  A
C135        C139   1.510       .  S
C136        H140   1.085       .  S
C137        H147   1.111       .  S
C137        H148   1.110       .  S
C137        H149   1.110       .  S
C139        H150   1.111       .  S
C139        H151   1.109       .  S
C139        H152   1.110       .  S
C153        C154   1.400       .  A
C153        C158   1.403       .  A
C153        H163   1.085       .  S
C154        C159   1.480       .  S
C154        C155   1.407       .  A
C155        C156   1.402       .  A
C155        C160   1.507       .  S
C156        C157   1.412       .  A
C156        H161   1.084       .  S
C157        C158   1.421       .  A
C158        C162   1.509       .  S
C159        C164   1.412       .  A
C159        C168   1.400       .  A
C160        H176   1.109       .  S
C160        H177   1.111       .  S
C160        H178   1.111       .  S
C162        H173   1.111       .  S
C162        H174   1.111       .  S
C162        H175   1.110       .  S
C164        C165   1.401       .  A
C164        C169   1.508       .  S
C165        C166   1.405       .  A
C165        H170   1.084       .  S
C166        C167   1.420       .  A
C167        C168   1.403       .  A
C167        C171   1.509       .  S
C168        H172   1.084       .  S
C169        H179   1.111       .  S
C169        H180   1.109       .  S
C169        H181   1.110       .  S
C171        H182   1.109       .  S
C171        H183   1.110       .  S
C171        H184   1.111       .  S
C185        C186   1.403       .  A
C185        C190   1.408       .  A
C185        H195   1.084       .  S
C186        C191   1.484       .  S
C186        C187   1.406       .  A
C187        C188   1.401       .  A
C187        C192   1.508       .  S
C188        C189   1.414       .  A
C188        H193   1.083   1_455  S
C189        C190   1.421       .  A
C190        C194   1.507       .  S
C191        C196   1.412       .  A
C191        C200   1.402       .  A
C192        H208   1.110       .  S
C192        H209   1.110       .  S
C192        H210   1.111       .  S
C194        H205   1.110       .  S
C194        H206   1.111       .  S
C194        H207   1.110       .  S
C196        C197   1.402       .  A
C196        C201   1.508       .  S
C197        C198   1.405       .  A
C197        H202   1.083       .  S
C198        C199   1.419       .  A
C199        C200   1.406       .  A
C199        C203   1.509       .  S
C200        H204   1.083       .  S
C201        H211   1.111       .  S
C201        H212   1.109       .  S
C201        H213   1.110       .  S
C203        H214   1.109       .  S
C203        H215   1.111       .  S
C203        H216   1.111       .  S
C217        C218   1.404       .  A
C217        C222   1.411       .  A
C217        H227   1.084       .  S
C218        C223   1.478   1_655  S
C218        C219   1.404       .  A
C219        C220   1.394       .  A
C219        C224   1.509   1_655  S
C220        C221   1.412       .  A
C220        H225   1.083       .  S
C221        C222   1.419       .  A
C222        C226   1.506       .  S
C223        C228   1.409       .  A
C223        C232   1.399   1_455  A
C224        H240   1.110   1_455  S
C224        H241   1.110       .  S
C224        H242   1.111       .  S
C226        H237   1.110       .  S
C226        H238   1.111       .  S
C226        H239   1.110       .  S
C228        C229   1.403       .  A
C228        C233   1.506       .  S
C229        C230   1.407       .  A
C229        H234   1.084       .  S
C230        C231   1.420       .  A
C231        C232   1.402   1_455  A
C231        C235   1.509   1_455  S
C232        H236   1.084       .  S
C233        H243   1.110       .  S
C233        H244   1.110       .  S
C233        H245   1.110       .  S
C235        H246   1.111       .  S
C235        H247   1.109       .  S
C235        H248   1.110   1_655  S
C249        C250   1.404       .  A
C249        C254   1.409       .  A
C249        H259   1.083       .  S
C250        C255   1.483   1_655  S
C250        C251   1.407   1_655  A
C251        C252   1.398   1_455  A
C251        C256   1.510       .  S
C252        C253   1.413       .  A
C252        H257   1.083   1_665  S
C253        C254   1.420       .  A
C254        C258   1.507       .  S
C255        C260   1.412       .  A
C255        C264   1.400       .  A
C256        H272   1.109       .  S
C256        H273   1.110       .  S
C256        H274   1.111       .  S
C258        H269   1.111       .  S
C258        H270   1.110       .  S
C258        H271   1.110       .  S
C260        C261   1.405       .  A
C260        C265   1.507   1_455  S
C261        C262   1.406       .  A
C261        H266   1.084       .  S
C262        C263   1.419       .  A
C263        C264   1.401       .  A
C263        C267   1.510       .  S
C264        H268   1.084       .  S
C265        H275   1.111       .  S
C265        H276   1.109       .  S
C265        H277   1.110       .  S
C267        H278   1.111       .  S
C267        H279   1.109       .  S
C267        H280   1.110       .  S
C281        C282   1.400       .  A
C281        C286   1.403       .  A
C281        H291   1.085       .  S
C282        C287   1.481   1_565  S
C282        C283   1.409       .  A
C283        C284   1.403       .  A
C283        C288   1.506   1_565  S
C284        C285   1.407       .  A
C284        H289   1.084       .  S
C285        C286   1.419       .  A
C286        C290   1.509       .  S
C287        C292   1.404   1_545  A
C287        C296   1.404       .  A
C288        H304   1.110       .  S
C288        H305   1.110       .  S
C288        H306   1.111       .  S
C290        H301   1.111       .  S
C290        H302   1.109       .  S
C290        H303   1.110       .  S
C292        C293   1.398   1_565  A
C292        C297   1.508       .  S
C293        C294   1.413       .  A
C293        H298   1.083   1_545  S
C294        C295   1.420       .  A
C295        C296   1.410       .  A
C295        C299   1.506       .  S
C296        H300   1.084       .  S
C297        H307   1.111       .  S
C297        H308   1.109       .  S
C297        H309   1.110       .  S
C299        H310   1.111       .  S
C299        H311   1.110       .  S
C299        H312   1.110       .  S
C313        C314   1.406       .  A
C313        C318   1.413       .  A
C313        H323   1.084       .  S
C314        C319   1.484       .  S
C314        C315   1.405       .  A
C315        C316   1.397       .  A
C315        C320   1.509       .  S
C316        C317   1.412       .  A
C316        H321   1.083       .  S
C317        C318   1.418       .  A
C318        C322   1.506       .  S
C319        C324   1.412   1_545  A
C319        C328   1.400       .  A
C320        H336   1.110       .  S
C320        H337   1.110   1_545  S
C320        H338   1.111       .  S
C322        H333   1.109       .  S
C322        H334   1.111       .  S
C322        H335   1.111       .  S
C324        C325   1.406       .  A
C324        C329   1.506       .  S
C325        C326   1.405       .  A
C325        H330   1.083       .  S
C326        C327   1.419       .  A
C327        C328   1.404   1_565  A
C327        C331   1.509   1_566  S
C328        H332   1.083       .  S
C329        H339   1.111       .  S
C329        H340   1.110       .  S
C329        H341   1.110       .  S
C331        H342   1.109       .  S
C331        H343   1.111   1_544  S
C331        H344   1.111   1_554  S
C345        C346   1.406       .  A
C345        C350   1.410       .  A
C345        H355   1.084       .  S
C346        C351   1.480       .  S
C346        C347   1.406       .  A
C347        C348   1.396       .  A
C347        C352   1.508       .  S
C348        C349   1.408       .  A
C348        H353   1.084       .  S
C349        C350   1.415       .  A
C350        C354   1.506       .  S
C351        C356   1.411       .  A
C351        C360   1.400       .  A
C352        H368   1.110       .  S
C352        H369   1.110       .  S
C352        H370   1.111       .  S
C354        H365   1.109       .  S
C354        H366   1.111       .  S
C354        H367   1.111       .  S
C356        C357   1.405       .  A
C356        C361   1.505       .  S
C357        C358   1.405       .  A
C357        H362   1.084       .  S
C358        C359   1.416       .  A
C359        C360   1.401       .  A
C359        C363   1.509       .  S
C360        H364   1.084       .  S
C361        H371   1.111       .  S
C361        H372   1.110       .  S
C361        H373   1.109       .  S
C363        H374   1.111       .  S
C363        H375   1.109       .  S
C363        H376   1.111       .  S
C377        C378   1.397       .  A
C377        C382   1.401       .  A
C377        H387   1.085       .  S
C378        C383   1.478       .  S
C378        C379   1.409       .  A
C379        C380   1.404       .  A
C379        C384   1.506       .  S
C380        C381   1.407       .  A
C380        H385   1.084       .  S
C381        C382   1.422       .  A
C382        C386   1.510       .  S
C383        C388   1.404       .  A
C383        C392   1.403       .  A
C384        H400   1.110       .  S
C384        H401   1.110       .  S
C384        H402   1.111       .  S
C386        H397   1.110       .  S
C386        H398   1.111       .  S
C386        H399   1.109   1_545  S
C388        C389   1.397       .  A
C388        C393   1.509       .  S
C389        C390   1.412       .  A
C389        H394   1.083       .  S
C390        C391   1.420       .  A
C391        C392   1.410       .  A
C391        C395   1.506       .  S
C392        H396   1.083       .  S
C393        H403   1.111       .  S
C393        H404   1.110       .  S
C393        H405   1.110       .  S
C395        H406   1.111       .  S
C395        H407   1.111       .  S
C395        H408   1.110       .  S
C409        C410   1.400       .  A
C409        C414   1.405       .  A
C409        H419   1.084       .  S
C410        C415   1.486       .  S
C410        C411   1.413       .  A
C411        C412   1.404       .  A
C411        C416   1.507       .  S
C412        C413   1.405       .  A
C412        H417   1.084       .  S
C413        C414   1.422       .  A
C414        C418   1.510       .  S
C415        C420   1.408       .  A
C415        C424   1.403   1_554  A
C416        H432   1.109   1_554  S
C416        H433   1.110       .  S
C416        H434   1.111       .  S
C418        H429   1.111       .  S
C418        H430   1.109       .  S
C418        H431   1.111       .  S
C420        C421   1.403       .  A
C420        C425   1.507       .  S
C421        C422   1.412   1_554  A
C421        H426   1.083   1_655  S
C422        C423   1.421       .  A
C423        C424   1.407       .  A
C423        C427   1.508       .  S
C424        H428   1.084       .  S
C425        H435   1.111       .  S
C425        H436   1.109       .  S
C425        H437   1.110       .  S
C427        H438   1.111       .  S
C427        H439   1.110       .  S
C427        H440   1.110       .  S
C441        C442   1.400       .  A
C441        C446   1.402       .  A
C441        H451   1.084       .  S
C442        C447   1.484       .  S
C442        C443   1.413   1_556  A
C443        C444   1.403       .  A
C443        C448   1.508       .  S
C444        C445   1.407       .  A
C444        H449   1.084       .  S
C445        C446   1.421   1_554  A
C446        C450   1.510       .  S
C447        C452   1.410       .  A
C447        C456   1.403       .  A
C448        H464   1.109       .  S
C448        H465   1.110       .  S
C448        H466   1.111       .  S
C450        H461   1.111       .  S
C450        H462   1.109       .  S
C450        H463   1.111       .  S
C452        C453   1.399       .  A
C452        C457   1.509       .  S
C453        C454   1.409       .  A
C453        H458   1.084       .  S
C454        C455   1.422       .  A
C455        C456   1.406       .  A
C455        C459   1.508       .  S
C456        H460   1.084       .  S
C457        H467   1.111       .  S
C457        H468   1.108       .  S
C457        H469   1.110       .  S
C459        H470   1.111       .  S
C459        H471   1.110       .  S
C459        H472   1.110       .  S
