geometry optimzed in LAMMPS
_audit_creation_date              2020-11-30 
_audit_creation_method            'lammps2cif' 
_symmetry_space_group_name_H-M    'P1' 
_symmetry_Int_Tables_number       1 
_symmetry_cell_setting            triclinic 
loop_ 
_symmetry_equiv_pos_as_xyz 
  x,y,z 
_cell_length_a                    48.79874826884853 
_cell_length_b                    48.46040358539484 
_cell_length_c                    39.54399745141326 
_cell_angle_alpha                 90.5248278325245 
_cell_angle_beta                  89.92689186385903 
_cell_angle_gamma                 90.19048647462324 
loop_ 
_atom_site_label 
_atom_site_type_symbol 
_atom_site_fract_x 
_atom_site_fract_y 
_atom_site_fract_z 
_atom_site_charge 
N1          N  0.41598896  0.09987108  0.07935881    -0.27430
N2          N  0.40782002  0.07640692  0.09296184    -0.35290
C3          C  0.42298523  0.05562211  0.08018129     0.00910
C4          C  0.44122007  0.06657285  0.05708965     0.06930
C5          C  0.43620307  0.09461667  0.05713560    -0.06170
H6          H  0.42055624  0.03412861  0.08675521     0.07600
H7          H  0.44673165  0.11013568  0.04246369     0.08800
Cu8        Cu  0.37569845  0.07378098  0.12715479     0.44170
Cu9        Cu  0.40032397  0.13817717  0.09254883     0.41990
Cu10       Cu  0.34979675  0.13912191  0.15928299     0.43880
N11         N  0.34327770  0.07720009  0.16084937    -0.34820
N12         N  0.33470474  0.10095179  0.17369055    -0.29070
C13         C  0.31398846  0.09608074  0.19529221    -0.05170
C14         C  0.30906793  0.06798924  0.19565190     0.07040
C15         C  0.32788772  0.05662089  0.17346155     0.00840
H16         H  0.30284445  0.11189819  0.20898369     0.08490
H17         H  0.33036795  0.03500556  0.16712485     0.07570
N18         N  0.36504327  0.17445689  0.13674471    -0.36270
N19         N  0.38336060  0.17407227  0.11210800    -0.28450
C20         C  0.38887054  0.20014066  0.10289955    -0.03690
C21         C  0.37299752  0.21780875  0.12235592     0.04920
C22         C  0.35833172  0.20078371  0.14380332     0.03010
H23         H  0.40334652  0.20583165  0.08340313     0.08120
H24         H  0.34443082  0.20690785  0.16376993     0.06950
O25         O  0.47050905  0.06303469  0.00954501    -0.73090
O26         O  0.02758222  0.02441164  0.45368730    -0.74070
O27         O  0.46907166  0.02454391  0.45496281    -0.62690
O28         O  0.02798529  0.06286156  0.00841258    -0.71100
O29         O  0.02881198  0.02793788  0.04440078    -0.70650
O30         O  0.46972202  0.98966327  0.49101611    -0.61900
O31         O  0.02737449  0.98943447  0.48960829    -0.74410
O32         O  0.47030114  0.02823488  0.04572576    -0.73190
Cu33       Cu  0.49878334  0.04487746  0.48032234     1.04560
Cu34       Cu  0.49906723  0.00761614  0.01901113     1.04330
C35         C  0.46157431  0.05184327  0.03650581     0.93110
C36         C  0.03636522  0.00080172  0.46276386     0.92250
C37         C  0.46018322  0.00104135  0.46454911     0.84400
C38         C  0.03749239  0.05155133  0.03493834     0.90670
N39         N  0.16825672  0.10057604  0.16654774    -0.27430
N40         N  0.15861209  0.07668560  0.15522641    -0.35290
C41         C  0.17282551  0.05609534  0.16950941     0.00910
C42         C  0.19189206  0.06765886  0.19128773     0.06930
C43         C  0.18841042  0.09584005  0.18887108    -0.06170
H44         H  0.16918900  0.03435385  0.16486328     0.07600
H45         H  0.19999590  0.11176294  0.20189439     0.08800
Cu46       Cu  0.12568325  0.07320881  0.12226135     0.44170
Cu47       Cu  0.15448960  0.13864266  0.15050123     0.41990
Cu48       Cu  0.09860086  0.13794541  0.09129446     0.43880
N49         N  0.09256206  0.07594456  0.08959166    -0.34820
N50         N  0.08351345  0.09953711  0.07737341    -0.29070
C51         C  0.06280744  0.09434158  0.05586154    -0.05170
C52         C  0.05835233  0.06619445  0.05487092     0.07040
C53         C  0.07743385  0.05511037  0.07665420     0.00840
H54         H  0.05151346  0.10996871  0.04241487     0.08490
H55         H  0.08040731  0.03351941  0.08227530     0.07570
N56         N  0.11637298  0.17382544  0.10983946    -0.36270
N57         N  0.13719165  0.17408591  0.13112021    -0.28450
C58         C  0.14439478  0.20037468  0.13776596    -0.03690
C59         C  0.12690954  0.21764434  0.12023886     0.04920
C60         C  0.10957685  0.19994872  0.10260431     0.03010
H61         H  0.16163497  0.20608102  0.15339854     0.08120
H62         H  0.09311046  0.20564889  0.08578350     0.06950
N63         N  0.33251538  0.95552178  0.32747204    -0.27430
N64         N  0.34027968  0.97897963  0.34193265    -0.35290
C65         C  0.32480937  0.99962960  0.32986119     0.00910
C66         C  0.30678650  0.98856798  0.30638005     0.06930
C67         C  0.31226794  0.96062758  0.30544436    -0.06170
H68         H  0.32687996  0.02110159  0.33718085     0.07600
H69         H  0.30201401  0.94505761  0.29024582     0.08800
Cu70       Cu  0.37222717  0.98159971  0.37639219     0.44170
Cu71       Cu  0.34842143  0.91731229  0.33954111     0.41990
Cu72       Cu  0.39709565  0.91598875  0.40793290     0.43880
N73         N  0.40456751  0.97785236  0.41003300    -0.34820
N74         N  0.41276593  0.95405884  0.42259089    -0.29070
C75         C  0.43353044  0.95875904  0.44422001    -0.05170
C76         C  0.43888462  0.98677034  0.44490252     0.07040
C77         C  0.42025999  0.99827638  0.42287668     0.00840
H78         H  0.44437943  0.94286945  0.45775919     0.08490
H79         H  0.41809535  0.01989030  0.41683971     0.07570
N80         N  0.38119039  0.88072187  0.38520125    -0.36270
N81         N  0.36379332  0.88125227  0.35966333    -0.28450
C82         C  0.35778849  0.85522614  0.35017825    -0.03690
C83         C  0.37194366  0.83730206  0.37093774     0.04920
C84         C  0.38672135  0.85431865  0.39268175     0.03010
H85         H  0.34444203  0.84992970  0.32929146     0.08120
H86         H  0.40041565  0.84801175  0.41264319     0.06950
O87         O  0.27759578  0.99169820  0.25890948    -0.73090
O88         O  0.22078539  0.02960916  0.20306051    -0.74070
O89         O  0.27922256  0.02993778  0.20496215    -0.62690
O90         O  0.22005544  0.99144841  0.25719148    -0.71100
O91         O  0.21873530  0.02649262  0.29375675    -0.70650
O92         O  0.27808525  0.06493322  0.24161812    -0.61900
O93         O  0.22053822  0.06479292  0.23947477    -0.74410
O94         O  0.27730946  0.02660101  0.29571809    -0.73190
Cu95       Cu  0.24943643  0.00949173  0.22970987     1.04560
Cu96       Cu  0.24862043  0.04690245  0.26900653     1.04330
C97         C  0.28631414  0.00305658  0.28609786     0.93110
C98         C  0.21192701  0.05328290  0.21230004     0.92250
C99         C  0.28785590  0.05355218  0.21499924     0.84400
C100        C  0.21020795  0.00282104  0.28377624     0.90670
N101        N  0.16321098  0.95497726  0.32401592    -0.27430
N102        N  0.15499984  0.97844747  0.33795828    -0.35290
C103        C  0.17053591  0.99920394  0.32599248     0.00910
C104        C  0.18907180  0.98821659  0.30310999     0.06930
C105        C  0.18382924  0.96018856  0.30242102    -0.06170
H106        H  0.16830497  0.02067908  0.33316358     0.07600
H107        H  0.19460945  0.94462054  0.28787132     0.08800
Cu108      Cu  0.12269416  0.98101603  0.37204539     0.44170
Cu109      Cu  0.14758647  0.91662308  0.33653858     0.41990
Cu110      Cu  0.09751215  0.91561232  0.40376022     0.43880
N111        N  0.09047998  0.97742266  0.40608846    -0.34820
N112        N  0.08213279  0.95362953  0.41866775    -0.29070
C113        C  0.06181891  0.95836710  0.44095381    -0.05170
C114        C  0.05691066  0.98642203  0.44208034     0.07040
C115        C  0.07531822  0.99790237  0.41958489     0.00840
H116        H  0.05107901  0.94249636  0.45481201     0.08490
H117        H  0.07780675  0.01955016  0.41382527     0.07570
N118        N  0.11417377  0.88030766  0.38225599    -0.36270
N119        N  0.13209684  0.88067596  0.35716821    -0.28450
C120        C  0.13867906  0.85458234  0.34873893    -0.03690
C121        C  0.12451044  0.83698365  0.36987395     0.04920
C122        C  0.10890751  0.85396648  0.39052827     0.03010
H123        H  0.15293338  0.84885264  0.32892771     0.08120
H124        H  0.09463608  0.84764025  0.40995505     0.06950
N125        N  0.41438719  0.59933802  0.41000240    -0.27430
N126        N  0.40656923  0.57589225  0.39555528    -0.35290
C127        C  0.42214618  0.55524710  0.40742165     0.00910
C128        C  0.44030001  0.56629528  0.43075274     0.06930
C129        C  0.43478282  0.59422575  0.43182034    -0.06170
H130        H  0.42011176  0.53379490  0.39999740     0.07600
H131        H  0.44515449  0.60979370  0.44689914     0.08800
Cu132      Cu  0.37454291  0.57327076  0.36121527     0.44170
Cu133      Cu  0.39846260  0.63755805  0.39803473     0.41990
Cu134      Cu  0.34981038  0.63886415  0.32959872     0.43880
N135        N  0.34229694  0.57700767  0.32744194    -0.34820
N136        N  0.33415959  0.60080634  0.31484147    -0.29070
C137        C  0.31354600  0.59610703  0.29299328    -0.05170
C138        C  0.30822325  0.56808960  0.29220897     0.07040
C139        C  0.32671009  0.55657898  0.31440818     0.00840
H140        H  0.30281406  0.61199426  0.27931008     0.08490
H141        H  0.32890232  0.53495285  0.32036643     0.07570
N142        N  0.36571924  0.67413339  0.35233179    -0.36270
N143        N  0.38310624  0.67361002  0.37788107    -0.28450
C144        C  0.38912110  0.69963856  0.38734655    -0.03690
C145        C  0.37498202  0.71755677  0.36656390     0.04920
C146        C  0.36020438  0.70053508  0.34482594     0.03010
H147        H  0.40246357  0.70494134  0.40823506     0.08120
H148        H  0.34652109  0.70683765  0.32485095     0.06950
N149        N  0.41438712  0.45384486  0.06398400    -0.27430
N150        N  0.40583980  0.47761151  0.07680829    -0.35290
C151        C  0.42105622  0.49819850  0.06390221     0.00910
C152        C  0.43972786  0.48681977  0.04152744     0.06930
C153        C  0.43490720  0.45871249  0.04209523    -0.06170
H154        H  0.41851154  0.51983161  0.07010135     0.07600
H155        H  0.44595636  0.44289080  0.02829286     0.08800
Cu156      Cu  0.37354111  0.48103990  0.11067513     0.44170
Cu157      Cu  0.39941333  0.41568588  0.07865726     0.41990
Cu158      Cu  0.34888614  0.41667924  0.14540741     0.43880
N159        N  0.34130660  0.47842884  0.14470150    -0.34820
N160        N  0.33310941  0.45498641  0.15833496    -0.29070
C161        C  0.31270084  0.46024634  0.18028068    -0.05170
C162        C  0.30758988  0.48826902  0.18010685     0.07040
C163        C  0.32597280  0.49920293  0.15718482     0.00840
H164        H  0.30206981  0.44473641  0.19485631     0.08490
H165        H  0.32833748  0.52067173  0.15046208     0.07570
N166        N  0.36588741  0.38077748  0.12594471    -0.36270
N167        N  0.38420206  0.38037138  0.10130483    -0.28450
C168        C  0.39091220  0.35403715  0.09428670    -0.03690
C169        C  0.37624933  0.33703284  0.11576359     0.04920
C170        C  0.36037862  0.35471913  0.13519538     0.03010
H171        H  0.40480192  0.34789165  0.07431790     0.08120
H172        H  0.34589666  0.34904748  0.15469380     0.06950
N173        N  0.16469133  0.60116044  0.31532046    -0.27430
N174        N  0.15633162  0.57740215  0.32798530    -0.35290
C175        C  0.17164584  0.55690920  0.31479410     0.00910
C176        C  0.19017474  0.56834177  0.29241500     0.06930
C177        C  0.18517459  0.59638344  0.29328702    -0.06170
H178        H  0.16922218  0.53528873  0.32073823     0.07600
H179        H  0.19599375  0.61222639  0.27947349     0.08800
Cu180      Cu  0.12402316  0.57386756  0.36189667     0.44170
Cu181      Cu  0.14918424  0.63920708  0.32988507     0.41990
Cu182      Cu  0.09911569  0.63832117  0.39712434     0.43880
N183        N  0.09181868  0.57648456  0.39611956    -0.34820
N184        N  0.08361905  0.59998767  0.40998613    -0.29070
C185        C  0.06317201  0.59480122  0.43183776    -0.05170
C186        C  0.05802634  0.56675281  0.43139390     0.07040
C187        C  0.07643959  0.55572896  0.40838607     0.00840
H188        H  0.05246859  0.61039010  0.44644111     0.08490
H189        H  0.07873798  0.53422378  0.40139131     0.07570
N190        N  0.11452191  0.67422517  0.37628109    -0.36270
N191        N  0.13244026  0.67454895  0.35118689    -0.28450
C192        C  0.13768556  0.70087464  0.34281951    -0.03690
C193        C  0.12207463  0.71789337  0.36342050     0.04920
C194        C  0.10792272  0.70033210  0.38461945     0.03010
H195        H  0.15197317  0.70716705  0.32339397     0.08120
H196        H  0.09369182  0.70609754  0.40444102     0.06950
O197        O  0.46993707  0.52828715  0.44077650    -0.73090
O198        O  0.02758658  0.49014242  0.49561700    -0.74070
O199        O  0.47002098  0.48992604  0.49486263    -0.62690
O200        O  0.02852268  0.52846074  0.44137120    -0.71100
O201        O  0.02770460  0.56349116  0.47798069    -0.70650
O202        O  0.46938451  0.52490932  0.03155526    -0.61900
O203        O  0.02784683  0.52529129  0.03208506    -0.74410
O204        O  0.47014527  0.56317770  0.47760654    -0.73190
Cu205      Cu  0.49904067  0.50800839  0.46679238     1.04560
Cu206      Cu  0.49876696  0.54539944  0.00613150     1.04330
C207        C  0.46105029  0.55181945  0.45060707     0.93110
C208        C  0.03659805  0.50163948  0.02259703     0.92250
C209        C  0.46063691  0.50128451  0.02170974     0.84400
C210        C  0.03717204  0.55213628  0.45117308     0.90670
O211        O  0.22036994  0.56531759  0.24553109    -0.73090
O212        O  0.27830592  0.52656596  0.19077957    -0.74070
O213        O  0.21979633  0.52680144  0.19073946    -0.62690
O214        O  0.27802700  0.56515534  0.24546181    -0.71100
O215        O  0.27818148  0.53029152  0.28155034    -0.70650
O216        O  0.22012261  0.49186954  0.22673025    -0.61900
O217        O  0.27760538  0.49178276  0.22697976    -0.74410
O218        O  0.21965860  0.53035260  0.28146383    -0.73190
Cu219      Cu  0.24912780  0.54716011  0.21680580     1.04560
Cu220      Cu  0.24887274  0.50990917  0.25551364     1.04330
C221        C  0.21099847  0.55395367  0.27217926     0.93110
C222        C  0.28692518  0.50297729  0.20021977     0.92250
C223        C  0.21101153  0.50316820  0.19998293     0.84400
C224        C  0.28719208  0.55379798  0.27214252     0.90670
N225        N  0.08103223  0.45429725  0.06710234    -0.27430
N226        N  0.09061883  0.47815752  0.07859481    -0.35290
C227        C  0.07615035  0.49877062  0.06475289     0.00910
C228        C  0.05696651  0.48725419  0.04309609     0.06930
C229        C  0.06065350  0.45907933  0.04511484    -0.06170
H230        H  0.07965240  0.52049702  0.06966495     0.07600
H231        H  0.04903451  0.44318358  0.03208701     0.08800
Cu232      Cu  0.12366740  0.48156958  0.11138096     0.44170
Cu233      Cu  0.09507167  0.41618718  0.08258192     0.41990
Cu234      Cu  0.15093693  0.41676249  0.14182360     0.43880
N235        N  0.15665725  0.47878361  0.14424078    -0.34820
N236        N  0.16575611  0.45515685  0.15630463    -0.29070
C237        C  0.18623380  0.46033118  0.17816156    -0.05170
C238        C  0.19048789  0.48850425  0.17953664     0.07040
C239        C  0.17153111  0.49962108  0.15761532     0.00840
H240        H  0.19748963  0.44468208  0.19161801     0.08490
H241        H  0.16842806  0.52123793  0.15224768     0.07570
N242        N  0.13330398  0.38091816  0.12292751    -0.36270
N243        N  0.11249696  0.38069966  0.10162942    -0.28450
C244        C  0.10532343  0.35442374  0.09484820    -0.03690
C245        C  0.12281014  0.33711757  0.11231607     0.04920
C246        C  0.14012120  0.35477839  0.13004003     0.03010
H247        H  0.08807372  0.34874908  0.07921365     0.08120
H248        H  0.15655385  0.34904317  0.14689223     0.06950
C249        C  0.11988491  0.79332241  0.33775506    -0.26460
C250        C  0.12468578  0.80651605  0.36891752    -0.14530
C251        C  0.12866135  0.79034958  0.39818772     0.36100
C252        C  0.12675044  0.76155664  0.39551245    -0.25910
C253        C  0.12194043  0.74836197  0.36435344    -0.15150
C254        C  0.11797893  0.76452736  0.33507866     0.37180
N255        N  0.11110961  0.75277241  0.30259711    -0.89400
H256        H  0.11662439  0.80560236  0.31534166     0.18300
H257        H  0.13000956  0.74927828  0.41792754     0.18290
N258        N  0.13554567  0.80210227  0.43066601    -0.88430
H259        H  0.09225203  0.76100717  0.29534096     0.35660
H260        H  0.10790024  0.73154716  0.30387429     0.40760
H261        H  0.13877654  0.82332400  0.42938313     0.40380
H262        H  0.15439823  0.79385323  0.43791754     0.35270
C263        C  0.39614123  0.79275910  0.37937466    -0.26460
C264        C  0.37220828  0.80663703  0.36975851    -0.14530
C265        C  0.34915990  0.79104100  0.35925557     0.36100
C266        C  0.35079267  0.76209942  0.35810466    -0.25910
C267        C  0.37472386  0.74822167  0.36772556    -0.15150
C268        C  0.39777349  0.76381714  0.37822453     0.37180
N269        N  0.42301121  0.75039413  0.38682031    -0.89400
H270        H  0.41399187  0.80457159  0.38705138     0.18300
H271        H  0.33294194  0.75028673  0.35042863     0.18290
N272        N  0.32392137  0.80446247  0.35066008    -0.88430
H273        H  0.43782699  0.76482715  0.39431688     0.35660
H274        H  0.43047009  0.74082017  0.36488097     0.40760
H275        H  0.31645981  0.81403206  0.37260083     0.40380
H276        H  0.30910755  0.79002920  0.34315827     0.35270
C277        C  0.12952945  0.29402797  0.14456138    -0.26460
C278        C  0.12289819  0.30649162  0.11371893    -0.14530
C279        C  0.11812350  0.28939414  0.08505539     0.36100
C280        C  0.12011412  0.26072996  0.08798857    -0.25910
C281        C  0.12677044  0.24826931  0.11882717    -0.15150
C282        C  0.13151692  0.26536764  0.14749615     0.37180
N283        N  0.13744798  0.25450127  0.18021955    -0.89400
H284        H  0.13308382  0.30670214  0.16685823     0.18300
H285        H  0.11654940  0.24805166  0.06569753     0.18290
N286        N  0.11215523  0.30026594  0.05234506    -0.88430
H287        H  0.15681771  0.24549378  0.17973480     0.35660
H288        H  0.12262485  0.23975683  0.18638865     0.40760
H289        H  0.12698236  0.31499805  0.04614753     0.40380
H290        H  0.09279691  0.30929800  0.05287966     0.35270
C291        C  0.35058185  0.29288865  0.11837876    -0.26460
C292        C  0.37597054  0.30650809  0.11686288    -0.14530
C293        C  0.40029736  0.29072304  0.11776970     0.36100
C294        C  0.39865719  0.26195507  0.11978132    -0.25910
C295        C  0.37326947  0.24833456  0.12128880    -0.15150
C296        C  0.34894157  0.26411977  0.12039154     0.37180
N297        N  0.32231581  0.25160845  0.12003165    -0.89400
H298        H  0.33178003  0.30471479  0.11757759     0.18300
H299        H  0.41745937  0.25012949  0.12058168     0.18290
N300        N  0.42692297  0.30323433  0.11813802    -0.88430
H301        H  0.31907971  0.24161676  0.14294837     0.35660
H302        H  0.32150707  0.23714060  0.10027886     0.40760
H303        H  0.42772671  0.31770341  0.13788979     0.40380
H304        H  0.43016554  0.31322446  0.09522178     0.35270
N305        N  0.41598898  0.09987108  0.57935882    -0.27430
N306        N  0.40782003  0.07640691  0.59296185    -0.35290
C307        C  0.42298524  0.05562210  0.58018129     0.00910
C308        C  0.44122008  0.06657285  0.55708965     0.06930
C309        C  0.43620309  0.09461667  0.55713562    -0.06170
H310        H  0.42055624  0.03412861  0.58675520     0.07600
H311        H  0.44673167  0.11013568  0.54246371     0.08800
Cu312      Cu  0.37569845  0.07378097  0.62715478     0.44170
Cu313      Cu  0.40032399  0.13817717  0.59254884     0.41990
Cu314      Cu  0.34979674  0.13912190  0.65928296     0.43880
N315        N  0.34327769  0.07720009  0.66084935    -0.34820
N316        N  0.33470472  0.10095179  0.67369052    -0.29070
C317        C  0.31398845  0.09608073  0.69529219    -0.05170
C318        C  0.30906792  0.06798924  0.69565188     0.07040
C319        C  0.32788771  0.05662089  0.67346153     0.00840
H320        H  0.30284443  0.11189818  0.70898366     0.08490
H321        H  0.33036795  0.03500556  0.66712484     0.07570
N322        N  0.36504327  0.17445689  0.63674470    -0.36270
N323        N  0.38336061  0.17407227  0.61210800    -0.28450
C324        C  0.38887055  0.20014066  0.60289956    -0.03690
C325        C  0.37299752  0.21780875  0.62235591     0.04920
C326        C  0.35833171  0.20078371  0.64380330     0.03010
H327        H  0.40334655  0.20583165  0.58340316     0.08120
H328        H  0.34443080  0.20690785  0.66376990     0.06950
O329        O  0.47050906  0.06303469  0.50954501    -0.73090
O330        O  0.02758222  0.02441164  0.95368730    -0.74070
O331        O  0.46907165  0.02454391  0.95496281    -0.62690
O332        O  0.02798528  0.06286156  0.50841258    -0.71100
O333        O  0.02881198  0.02793789  0.54440078    -0.70650
O334        O  0.46972201  0.98966327  0.99101611    -0.61900
O335        O  0.02737449  0.98943447  0.98960829    -0.74410
O336        O  0.47030115  0.02823487  0.54572576    -0.73190
Cu337      Cu  0.49878333  0.04487746  0.98032234     1.04560
Cu338      Cu  0.49906724  0.00761613  0.51901114     1.04330
C339        C  0.46157432  0.05184326  0.53650581     0.93110
C340        C  0.03636521  0.00080172  0.96276385     0.92250
C341        C  0.46018321  0.00104135  0.96454911     0.84400
C342        C  0.03749239  0.05155134  0.53493834     0.90670
N343        N  0.16825672  0.10057604  0.66654773    -0.27430
N344        N  0.15861209  0.07668560  0.65522640    -0.35290
C345        C  0.17282551  0.05609534  0.66950940     0.00910
C346        C  0.19189206  0.06765885  0.69128773     0.06930
C347        C  0.18841042  0.09584004  0.68887108    -0.06170
H348        H  0.16918900  0.03435385  0.66486327     0.07600
H349        H  0.19999590  0.11176294  0.70189439     0.08800
Cu350      Cu  0.12568325  0.07320881  0.62226134     0.44170
Cu351      Cu  0.15448960  0.13864265  0.65050122     0.41990
Cu352      Cu  0.09860087  0.13794541  0.59129445     0.43880
N353        N  0.09256206  0.07594457  0.58959166    -0.34820
N354        N  0.08351345  0.09953711  0.57737340    -0.29070
C355        C  0.06280744  0.09434158  0.55586153    -0.05170
C356        C  0.05835233  0.06619446  0.55487092     0.07040
C357        C  0.07743384  0.05511037  0.57665419     0.00840
H358        H  0.05151346  0.10996871  0.54241487     0.08490
H359        H  0.08040730  0.03351942  0.58227530     0.07570
N360        N  0.11637299  0.17382545  0.60983945    -0.36270
N361        N  0.13719166  0.17408591  0.63112020    -0.28450
C362        C  0.14439479  0.20037468  0.63776595    -0.03690
C363        C  0.12690955  0.21764435  0.62023885     0.04920
C364        C  0.10957686  0.19994872  0.60260430     0.03010
H365        H  0.16163498  0.20608102  0.65339853     0.08120
H366        H  0.09311047  0.20564890  0.58578349     0.06950
N367        N  0.33251537  0.95552177  0.82747204    -0.27430
N368        N  0.34027967  0.97897963  0.84193265    -0.35290
C369        C  0.32480936  0.99962960  0.82986118     0.00910
C370        C  0.30678649  0.98856798  0.80638005     0.06930
C371        C  0.31226793  0.96062758  0.80544437    -0.06170
H372        H  0.32687995  0.02110159  0.83718085     0.07600
H373        H  0.30201400  0.94505761  0.79024582     0.08800
Cu374      Cu  0.37222716  0.98159971  0.87639220     0.44170
Cu375      Cu  0.34842141  0.91731229  0.83954113     0.41990
Cu376      Cu  0.39709564  0.91598875  0.90793292     0.43880
N377        N  0.40456750  0.97785236  0.91003301    -0.34820
N378        N  0.41276591  0.95405884  0.92259090    -0.29070
C379        C  0.43353043  0.95875904  0.94422002    -0.05170
C380        C  0.43888461  0.98677034  0.94490252     0.07040
C381        C  0.42025998  0.99827638  0.92287668     0.00840
H382        H  0.44437941  0.94286945  0.95775920     0.08490
H383        H  0.41809533  0.01989030  0.91683971     0.07570
N384        N  0.38119038  0.88072187  0.88520127    -0.36270
N385        N  0.36379331  0.88125227  0.85966335    -0.28450
C386        C  0.35778848  0.85522613  0.85017827    -0.03690
C387        C  0.37194365  0.83730206  0.87093776     0.04920
C388        C  0.38672134  0.85431865  0.89268177     0.03010
H389        H  0.34444202  0.84992970  0.82929148     0.08120
H390        H  0.40041564  0.84801175  0.91264321     0.06950
O391        O  0.27759578  0.99169819  0.75890947    -0.73090
O392        O  0.22078538  0.02960915  0.70306051    -0.74070
O393        O  0.27922256  0.02993777  0.70496214    -0.62690
O394        O  0.22005544  0.99144840  0.75719148    -0.71100
O395        O  0.21873530  0.02649262  0.79375674    -0.70650
O396        O  0.27808525  0.06493322  0.74161811    -0.61900
O397        O  0.22053822  0.06479291  0.73947477    -0.74410
O398        O  0.27730946  0.02660101  0.79571808    -0.73190
Cu399      Cu  0.24943643  0.00949173  0.72970986     1.04560
Cu400      Cu  0.24862042  0.04690245  0.76900652     1.04330
C401        C  0.28631414  0.00305657  0.78609786     0.93110
C402        C  0.21192701  0.05328289  0.71230004     0.92250
C403        C  0.28785589  0.05355217  0.71499922     0.84400
C404        C  0.21020795  0.00282104  0.78377624     0.90670
N405        N  0.16321099  0.95497725  0.82401593    -0.27430
N406        N  0.15499985  0.97844746  0.83795828    -0.35290
C407        C  0.17053592  0.99920394  0.82599249     0.00910
C408        C  0.18907180  0.98821659  0.80310999     0.06930
C409        C  0.18382924  0.96018856  0.80242103    -0.06170
H410        H  0.16830497  0.02067908  0.83316359     0.07600
H411        H  0.19460945  0.94462053  0.78787133     0.08800
Cu412      Cu  0.12269417  0.98101602  0.87204539     0.44170
Cu413      Cu  0.14758647  0.91662308  0.83653858     0.41990
Cu414      Cu  0.09751213  0.91561232  0.90376019     0.43880
N415        N  0.09047997  0.97742266  0.90608845    -0.34820
N416        N  0.08213278  0.95362953  0.91866774    -0.29070
C417        C  0.06181889  0.95836710  0.94095379    -0.05170
C418        C  0.05691065  0.98642203  0.94208033     0.07040
C419        C  0.07531822  0.99790237  0.91958489     0.00840
H420        H  0.05107899  0.94249636  0.95481198     0.08490
H421        H  0.07780675  0.01955016  0.91382527     0.07570
N422        N  0.11417375  0.88030766  0.88225598    -0.36270
N423        N  0.13209684  0.88067596  0.85716821    -0.28450
C424        C  0.13867906  0.85458233  0.84873894    -0.03690
C425        C  0.12451044  0.83698364  0.86987395     0.04920
C426        C  0.10890749  0.85396648  0.89052825     0.03010
H427        H  0.15293339  0.84885263  0.82892773     0.08120
H428        H  0.09463605  0.84764025  0.90995503     0.06950
N429        N  0.41438720  0.59933802  0.91000238    -0.27430
N430        N  0.40656923  0.57589225  0.89555526    -0.35290
C431        C  0.42214618  0.55524710  0.90742163     0.00910
C432        C  0.44030002  0.56629528  0.93075272     0.06930
C433        C  0.43478283  0.59422574  0.93182032    -0.06170
H434        H  0.42011176  0.53379489  0.89999738     0.07600
H435        H  0.44515450  0.60979370  0.94689911     0.08800
Cu436      Cu  0.37454290  0.57327076  0.86121526     0.44170
Cu437      Cu  0.39846261  0.63755805  0.89803472     0.41990
Cu438      Cu  0.34981037  0.63886415  0.82959873     0.43880
N439        N  0.34229693  0.57700767  0.82744194    -0.34820
N440        N  0.33415958  0.60080634  0.81484148    -0.29070
C441        C  0.31354599  0.59610703  0.79299329    -0.05170
C442        C  0.30822324  0.56808960  0.79220897     0.07040
C443        C  0.32671008  0.55657898  0.81440818     0.00840
H444        H  0.30281404  0.61199426  0.77931009     0.08490
H445        H  0.32890232  0.53495285  0.82036642     0.07570
N446        N  0.36571924  0.67413339  0.85233179    -0.36270
N447        N  0.38310624  0.67361002  0.87788107    -0.28450
C448        C  0.38912110  0.69963855  0.88734654    -0.03690
C449        C  0.37498202  0.71755677  0.86656390     0.04920
C450        C  0.36020438  0.70053508  0.84482594     0.03010
H451        H  0.40246358  0.70494134  0.90823506     0.08120
H452        H  0.34652108  0.70683765  0.82485095     0.06950
N453        N  0.41438714  0.45384487  0.56398402    -0.27430
N454        N  0.40583981  0.47761151  0.57680831    -0.35290
C455        C  0.42105623  0.49819850  0.56390223     0.00910
C456        C  0.43972788  0.48681977  0.54152746     0.06930
C457        C  0.43490721  0.45871250  0.54209526    -0.06170
H458        H  0.41851155  0.51983162  0.57010137     0.07600
H459        H  0.44595637  0.44289080  0.52829288     0.08800
Cu460      Cu  0.37354112  0.48103990  0.61067515     0.44170
Cu461      Cu  0.39941334  0.41568588  0.57865728     0.41990
Cu462      Cu  0.34888614  0.41667924  0.64540742     0.43880
N463        N  0.34130661  0.47842884  0.64470151    -0.34820
N464        N  0.33310941  0.45498641  0.65833497    -0.29070
C465        C  0.31270083  0.46024634  0.68028068    -0.05170
C466        C  0.30758987  0.48826902  0.68010686     0.07040
C467        C  0.32597280  0.49920293  0.65718483     0.00840
H468        H  0.30206981  0.44473641  0.69485630     0.08490
H469        H  0.32833749  0.52067173  0.65046209     0.07570
N470        N  0.36588741  0.38077748  0.62594471    -0.36270
N471        N  0.38420206  0.38037138  0.60130484    -0.28450
C472        C  0.39091221  0.35403715  0.59428671    -0.03690
C473        C  0.37624934  0.33703284  0.61576359     0.04920
C474        C  0.36037862  0.35471913  0.63519538     0.03010
H475        H  0.40480194  0.34789165  0.57431792     0.08120
H476        H  0.34589665  0.34904748  0.65469379     0.06950
N477        N  0.16469133  0.60116044  0.81532046    -0.27430
N478        N  0.15633162  0.57740215  0.82798531    -0.35290
C479        C  0.17164583  0.55690920  0.81479410     0.00910
C480        C  0.19017473  0.56834177  0.79241500     0.06930
C481        C  0.18517458  0.59638344  0.79328702    -0.06170
H482        H  0.16922218  0.53528873  0.82073823     0.07600
H483        H  0.19599374  0.61222639  0.77947349     0.08800
Cu484      Cu  0.12402317  0.57386756  0.86189669     0.44170
Cu485      Cu  0.14918424  0.63920707  0.82988509     0.41990
Cu486      Cu  0.09911572  0.63832116  0.89712439     0.43880
N487        N  0.09181869  0.57648455  0.89611959    -0.34820
N488        N  0.08361908  0.59998766  0.90998617    -0.29070
C489        C  0.06317203  0.59480121  0.93183780    -0.05170
C490        C  0.05802636  0.56675280  0.93139393     0.07040
C491        C  0.07643960  0.55572895  0.90838610     0.00840
H492        H  0.05246861  0.61039009  0.94644115     0.08490
H493        H  0.07873799  0.53422378  0.90139132     0.07570
N494        N  0.11452192  0.67422516  0.87628113    -0.36270
N495        N  0.13244027  0.67454894  0.85118693    -0.28450
C496        C  0.13768556  0.70087463  0.84281954    -0.03690
C497        C  0.12207464  0.71789337  0.86342053     0.04920
C498        C  0.10792273  0.70033209  0.88461949     0.03010
H499        H  0.15197317  0.70716705  0.82339399     0.08120
H500        H  0.09369184  0.70609753  0.90444106     0.06950
O501        O  0.46993707  0.52828715  0.94077649    -0.73090
O502        O  0.02758658  0.49014241  0.99561703    -0.74070
O503        O  0.47002098  0.48992603  0.99486262    -0.62690
O504        O  0.02852269  0.52846073  0.94137123    -0.71100
O505        O  0.02770461  0.56349116  0.97798071    -0.70650
O506        O  0.46938452  0.52490933  0.53155527    -0.61900
O507        O  0.02784683  0.52529130  0.53208503    -0.74410
O508        O  0.47014527  0.56317769  0.97760652    -0.73190
Cu509      Cu  0.49904067  0.50800838  0.96679237     1.04560
Cu510      Cu  0.49876696  0.54539945  0.50613152     1.04330
C511        C  0.46105030  0.55181945  0.95060705     0.93110
C512        C  0.03659806  0.50163948  0.52259700     0.92250
C513        C  0.46063692  0.50128452  0.52170976     0.84400
C514        C  0.03717205  0.55213627  0.95117311     0.90670
O515        O  0.22036993  0.56531759  0.74553108    -0.73090
O516        O  0.27830592  0.52656596  0.69077957    -0.74070
O517        O  0.21979633  0.52680144  0.69073945    -0.62690
O518        O  0.27802699  0.56515534  0.74546181    -0.71100
O519        O  0.27818147  0.53029152  0.78155034    -0.70650
O520        O  0.22012260  0.49186954  0.72673024    -0.61900
O521        O  0.27760537  0.49178276  0.72697976    -0.74410
O522        O  0.21965859  0.53035260  0.78146382    -0.73190
Cu523      Cu  0.24912779  0.54716011  0.71680579     1.04560
Cu524      Cu  0.24887273  0.50990917  0.75551364     1.04330
C525        C  0.21099847  0.55395367  0.77217925     0.93110
C526        C  0.28692518  0.50297729  0.70021977     0.92250
C527        C  0.21101152  0.50316820  0.69998292     0.84400
C528        C  0.28719207  0.55379798  0.77214252     0.90670
N529        N  0.08103224  0.45429725  0.56710232    -0.27430
N530        N  0.09061884  0.47815752  0.57859479    -0.35290
C531        C  0.07615036  0.49877062  0.56475287     0.00910
C532        C  0.05696652  0.48725420  0.54309606     0.06930
C533        C  0.06065351  0.45907933  0.54511481    -0.06170
H534        H  0.07965240  0.52049702  0.56966493     0.07600
H535        H  0.04903451  0.44318358  0.53208698     0.08800
Cu536      Cu  0.12366740  0.48156958  0.61138095     0.44170
Cu537      Cu  0.09507167  0.41618718  0.58258189     0.41990
Cu538      Cu  0.15093692  0.41676249  0.64182361     0.43880
N539        N  0.15665724  0.47878362  0.64424077    -0.34820
N540        N  0.16575610  0.45515685  0.65630462    -0.29070
C541        C  0.18623379  0.46033118  0.67816156    -0.05170
C542        C  0.19048788  0.48850425  0.67953663     0.07040
C543        C  0.17153111  0.49962108  0.65761531     0.00840
H544        H  0.19748962  0.44468209  0.69161801     0.08490
H545        H  0.16842806  0.52123794  0.65224766     0.07570
N546        N  0.13330398  0.38091817  0.62292751    -0.36270
N547        N  0.11249695  0.38069966  0.60162941    -0.28450
C548        C  0.10532343  0.35442374  0.59484819    -0.03690
C549        C  0.12281014  0.33711757  0.61231607     0.04920
C550        C  0.14012119  0.35477840  0.63004003     0.03010
H551        H  0.08807373  0.34874908  0.57921363     0.08120
H552        H  0.15655384  0.34904318  0.64689224     0.06950
C553        C  0.11988492  0.79332240  0.83775507    -0.26460
C554        C  0.12468577  0.80651605  0.86891754    -0.14530
C555        C  0.12866133  0.79034958  0.89818774     0.36100
C556        C  0.12675042  0.76155664  0.89551247    -0.25910
C557        C  0.12194043  0.74836196  0.86435347    -0.15150
C558        C  0.11797894  0.76452735  0.83507868     0.37180
N559        N  0.11110963  0.75277239  0.80259713    -0.89400
H560        H  0.11662441  0.80560234  0.81534167     0.18300
H561        H  0.13000954  0.74927829  0.91792758     0.18290
N562        N  0.13554563  0.80210228  0.93066603    -0.88430
H563        H  0.09225205  0.76100716  0.79534096     0.35660
H564        H  0.10790025  0.73154715  0.80387431     0.40760
H565        H  0.13877651  0.82332401  0.92938315     0.40380
H566        H  0.15439819  0.79385324  0.93791758     0.35270
C567        C  0.39614123  0.79275910  0.87937467    -0.26460
C568        C  0.37220827  0.80663703  0.86975852    -0.14530
C569        C  0.34915989  0.79104100  0.85925558     0.36100
C570        C  0.35079266  0.76209942  0.85810467    -0.25910
C571        C  0.37472386  0.74822167  0.86772557    -0.15150
C572        C  0.39777349  0.76381714  0.87822454     0.37180
N573        N  0.42301121  0.75039413  0.88682031    -0.89400
H574        H  0.41399186  0.80457159  0.88705139     0.18300
H575        H  0.33294194  0.75028673  0.85042864     0.18290
N576        N  0.32392137  0.80446246  0.85066009    -0.88430
H577        H  0.43782699  0.76482716  0.89431688     0.35660
H578        H  0.43047009  0.74082017  0.86488097     0.40760
H579        H  0.31645980  0.81403206  0.87260084     0.40380
H580        H  0.30910755  0.79002919  0.84315828     0.35270
C581        C  0.12952946  0.29402798  0.64456137    -0.26460
C582        C  0.12289819  0.30649162  0.61371893    -0.14530
C583        C  0.11812351  0.28939414  0.58505539     0.36100
C584        C  0.12011413  0.26072997  0.58798856    -0.25910
C585        C  0.12677045  0.24826931  0.61882716    -0.15150
C586        C  0.13151693  0.26536764  0.64749614     0.37180
N587        N  0.13744798  0.25450127  0.68021955    -0.89400
H588        H  0.13308382  0.30670215  0.66685823     0.18300
H589        H  0.11654942  0.24805167  0.56569752     0.18290
N590        N  0.11215524  0.30026594  0.55234506    -0.88430
H591        H  0.15681772  0.24549378  0.67973480     0.35660
H592        H  0.12262486  0.23975683  0.68638865     0.40760
H593        H  0.12698237  0.31499806  0.54614753     0.40380
H594        H  0.09279692  0.30929800  0.55287965     0.35270
C595        C  0.35058185  0.29288865  0.61837874    -0.26460
C596        C  0.37597054  0.30650809  0.61686288    -0.14530
C597        C  0.40029737  0.29072304  0.61776973     0.36100
C598        C  0.39865719  0.26195507  0.61978134    -0.25910
C599        C  0.37326947  0.24833456  0.62128879    -0.15150
C600        C  0.34894158  0.26411976  0.62039152     0.37180
N601        N  0.32231581  0.25160844  0.62003161    -0.89400
H602        H  0.33178004  0.30471478  0.61757756     0.18300
H603        H  0.41745938  0.25012949  0.62058171     0.18290
N604        N  0.42692297  0.30323434  0.61813807    -0.88430
H605        H  0.31907970  0.24161675  0.64294832     0.35660
H606        H  0.32150709  0.23714060  0.60027882     0.40760
H607        H  0.42772670  0.31770342  0.63788984     0.40380
H608        H  0.43016555  0.31322447  0.59522182     0.35270
N609        N  0.91598898  0.09987108  0.07935883    -0.27430
N610        N  0.90782004  0.07640692  0.09296186    -0.35290
C611        C  0.92298524  0.05562211  0.08018130     0.00910
C612        C  0.94122009  0.06657285  0.05708966     0.06930
C613        C  0.93620309  0.09461667  0.05713562    -0.06170
H614        H  0.92055625  0.03412861  0.08675521     0.07600
H615        H  0.94673167  0.11013568  0.04246371     0.08800
Cu616      Cu  0.87569846  0.07378098  0.12715480     0.44170
Cu617      Cu  0.90032399  0.13817717  0.09254885     0.41990
Cu618      Cu  0.84979677  0.13912191  0.15928300     0.43880
N619        N  0.84327771  0.07720009  0.16084938    -0.34820
N620        N  0.83470475  0.10095179  0.17369055    -0.29070
C621        C  0.81398847  0.09608074  0.19529222    -0.05170
C622        C  0.80906793  0.06798924  0.19565190     0.07040
C623        C  0.82788773  0.05662089  0.17346155     0.00840
H624        H  0.80284446  0.11189819  0.20898369     0.08490
H625        H  0.83036796  0.03500557  0.16712485     0.07570
N626        N  0.86504329  0.17445689  0.13674473    -0.36270
N627        N  0.88336062  0.17407227  0.11210801    -0.28450
C628        C  0.88887055  0.20014067  0.10289957    -0.03690
C629        C  0.87299753  0.21780875  0.12235593     0.04920
C630        C  0.85833173  0.20078371  0.14380333     0.03010
H631        H  0.90334654  0.20583165  0.08340315     0.08120
H632        H  0.84443082  0.20690785  0.16376994     0.06950
O633        O  0.97050905  0.06303469  0.00954502    -0.73090
O634        O  0.52758223  0.02441164  0.45368730    -0.74070
O635        O  0.96907165  0.02454391  0.45496281    -0.62690
O636        O  0.52798528  0.06286156  0.00841258    -0.71100
O637        O  0.52881198  0.02793789  0.04440078    -0.70650
O638        O  0.96972201  0.98966327  0.49101611    -0.61900
O639        O  0.52737449  0.98943447  0.48960829    -0.74410
O640        O  0.97030115  0.02823487  0.04572577    -0.73190
Cu641      Cu  0.99878334  0.04487746  0.48032234     1.04560
Cu642      Cu  0.99906724  0.00761613  0.01901113     1.04330
C643        C  0.96157432  0.05184326  0.03650582     0.93110
C644        C  0.53636522  0.00080172  0.46276386     0.92250
C645        C  0.96018322  0.00104134  0.46454910     0.84400
C646        C  0.53749239  0.05155134  0.03493834     0.90670
N647        N  0.66825672  0.10057604  0.16654772    -0.27430
N648        N  0.65861210  0.07668560  0.15522640    -0.35290
C649        C  0.67282552  0.05609534  0.16950940     0.00910
C650        C  0.69189206  0.06765886  0.19128772     0.06930
C651        C  0.68841043  0.09584005  0.18887107    -0.06170
H652        H  0.66918900  0.03435385  0.16486326     0.07600
H653        H  0.69999591  0.11176294  0.20189438     0.08800
Cu654      Cu  0.62568326  0.07320881  0.12226134     0.44170
Cu655      Cu  0.65448960  0.13864266  0.15050121     0.41990
Cu656      Cu  0.59860087  0.13794541  0.09129444     0.43880
N657        N  0.59256206  0.07594457  0.08959165    -0.34820
N658        N  0.58351345  0.09953711  0.07737340    -0.29070
C659        C  0.56280745  0.09434158  0.05586153    -0.05170
C660        C  0.55835233  0.06619446  0.05487091     0.07040
C661        C  0.57743385  0.05511037  0.07665419     0.00840
H662        H  0.55151346  0.10996871  0.04241486     0.08490
H663        H  0.58040730  0.03351941  0.08227530     0.07570
N664        N  0.61637299  0.17382545  0.10983945    -0.36270
N665        N  0.63719166  0.17408591  0.13112020    -0.28450
C666        C  0.64439479  0.20037468  0.13776595    -0.03690
C667        C  0.62690955  0.21764435  0.12023885     0.04920
C668        C  0.60957686  0.19994872  0.10260430     0.03010
H669        H  0.66163498  0.20608103  0.15339853     0.08120
H670        H  0.59311047  0.20564890  0.08578348     0.06950
N671        N  0.83251537  0.95552178  0.32747204    -0.27430
N672        N  0.84027968  0.97897963  0.34193264    -0.35290
C673        C  0.82480936  0.99962960  0.32986118     0.00910
C674        C  0.80678649  0.98856798  0.30638005     0.06930
C675        C  0.81226793  0.96062758  0.30544436    -0.06170
H676        H  0.82687996  0.02110159  0.33718085     0.07600
H677        H  0.80201400  0.94505761  0.29024582     0.08800
Cu678      Cu  0.87222717  0.98159971  0.37639218     0.44170
Cu679      Cu  0.84842142  0.91731229  0.33954112     0.41990
Cu680      Cu  0.89709564  0.91598875  0.40793291     0.43880
N681        N  0.90456751  0.97785236  0.41003300    -0.34820
N682        N  0.91276592  0.95405884  0.42259089    -0.29070
C683        C  0.93353043  0.95875904  0.44422001    -0.05170
C684        C  0.93888461  0.98677034  0.44490252     0.07040
C685        C  0.92025999  0.99827638  0.42287667     0.00840
H686        H  0.94437942  0.94286945  0.45775920     0.08490
H687        H  0.91809534  0.01989030  0.41683970     0.07570
N688        N  0.88119038  0.88072187  0.38520126    -0.36270
N689        N  0.86379331  0.88125227  0.35966334    -0.28450
C690        C  0.85778848  0.85522613  0.35017826    -0.03690
C691        C  0.87194365  0.83730206  0.37093775     0.04920
C692        C  0.88672134  0.85431865  0.39268176     0.03010
H693        H  0.84444202  0.84992970  0.32929147     0.08120
H694        H  0.90041563  0.84801175  0.41264320     0.06950
O695        O  0.77759578  0.99169820  0.25890947    -0.73090
O696        O  0.72078539  0.02960916  0.20306050    -0.74070
O697        O  0.77922257  0.02993778  0.20496214    -0.62690
O698        O  0.72005544  0.99144841  0.25719147    -0.71100
O699        O  0.71873530  0.02649262  0.29375674    -0.70650
O700        O  0.77808525  0.06493322  0.24161812    -0.61900
O701        O  0.72053822  0.06479292  0.23947476    -0.74410
O702        O  0.77730946  0.02660102  0.29571808    -0.73190
Cu703      Cu  0.74943643  0.00949174  0.22970986     1.04560
Cu704      Cu  0.74862043  0.04690245  0.26900652     1.04330
C705        C  0.78631414  0.00305658  0.28609786     0.93110
C706        C  0.71192702  0.05328290  0.21230003     0.92250
C707        C  0.78785590  0.05355218  0.21499924     0.84400
C708        C  0.71020795  0.00282104  0.28377624     0.90670
N709        N  0.66321099  0.95497726  0.32401592    -0.27430
N710        N  0.65499985  0.97844747  0.33795828    -0.35290
C711        C  0.67053592  0.99920394  0.32599247     0.00910
C712        C  0.68907180  0.98821659  0.30310998     0.06930
C713        C  0.68382924  0.96018856  0.30242102    -0.06170
H714        H  0.66830497  0.02067908  0.33316358     0.07600
H715        H  0.69460945  0.94462054  0.28787132     0.08800
Cu716      Cu  0.62269417  0.98101603  0.37204540     0.44170
Cu717      Cu  0.64758648  0.91662308  0.33653858     0.41990
Cu718      Cu  0.59751216  0.91561232  0.40376022     0.43880
N719        N  0.59047999  0.97742267  0.40608846    -0.34820
N720        N  0.58213280  0.95362953  0.41866776    -0.29070
C721        C  0.56181891  0.95836711  0.44095381    -0.05170
C722        C  0.55691067  0.98642203  0.44208034     0.07040
C723        C  0.57531823  0.99790237  0.41958489     0.00840
H724        H  0.55107902  0.94249636  0.45481201     0.08490
H725        H  0.57780675  0.01955016  0.41382527     0.07570
N726        N  0.61417378  0.88030766  0.38225600    -0.36270
N727        N  0.63209686  0.88067597  0.35716822    -0.28450
C728        C  0.63867907  0.85458234  0.34873894    -0.03690
C729        C  0.62451045  0.83698365  0.36987396     0.04920
C730        C  0.60890752  0.85396648  0.39052828     0.03010
H731        H  0.65293338  0.84885264  0.32892772     0.08120
H732        H  0.59463609  0.84764025  0.40995506     0.06950
N733        N  0.91438718  0.59933802  0.41000239    -0.27430
N734        N  0.90656922  0.57589225  0.39555528    -0.35290
C735        C  0.92214617  0.55524710  0.40742164     0.00910
C736        C  0.94030001  0.56629528  0.43075274     0.06930
C737        C  0.93478282  0.59422575  0.43182034    -0.06170
H738        H  0.92011176  0.53379490  0.39999739     0.07600
H739        H  0.94515449  0.60979370  0.44689913     0.08800
Cu740      Cu  0.87454290  0.57327076  0.36121526     0.44170
Cu741      Cu  0.89846259  0.63755805  0.39803473     0.41990
Cu742      Cu  0.84981037  0.63886415  0.32959871     0.43880
N743        N  0.84229693  0.57700767  0.32744194    -0.34820
N744        N  0.83415958  0.60080634  0.31484147    -0.29070
C745        C  0.81354599  0.59610703  0.29299328    -0.05170
C746        C  0.80822324  0.56808960  0.29220896     0.07040
C747        C  0.82671008  0.55657898  0.31440818     0.00840
H748        H  0.80281405  0.61199426  0.27931007     0.08490
H749        H  0.82890231  0.53495285  0.32036643     0.07570
N750        N  0.86571924  0.67413339  0.35233179    -0.36270
N751        N  0.88310623  0.67361002  0.37788107    -0.28450
C752        C  0.88912109  0.69963856  0.38734655    -0.03690
C753        C  0.87498201  0.71755677  0.36656390     0.04920
C754        C  0.86020438  0.70053508  0.34482593     0.03010
H755        H  0.90246356  0.70494134  0.40823507     0.08120
H756        H  0.84652109  0.70683765  0.32485094     0.06950
N757        N  0.91438713  0.45384487  0.06398401    -0.27430
N758        N  0.90583980  0.47761151  0.07680830    -0.35290
C759        C  0.92105622  0.49819850  0.06390222     0.00910
C760        C  0.93972787  0.48681977  0.04152745     0.06930
C761        C  0.93490720  0.45871250  0.04209525    -0.06170
H762        H  0.91851154  0.51983162  0.07010136     0.07600
H763        H  0.94595636  0.44289080  0.02829287     0.08800
Cu764      Cu  0.87354111  0.48103990  0.11067514     0.44170
Cu765      Cu  0.89941333  0.41568588  0.07865727     0.41990
Cu766      Cu  0.84888612  0.41667924  0.14540740     0.43880
N767        N  0.84130659  0.47842884  0.14470149    -0.34820
N768        N  0.83310940  0.45498641  0.15833496    -0.29070
C769        C  0.81270082  0.46024634  0.18028067    -0.05170
C770        C  0.80758987  0.48826902  0.18010685     0.07040
C771        C  0.82597279  0.49920293  0.15718482     0.00840
H772        H  0.80206980  0.44473641  0.19485629     0.08490
H773        H  0.82833748  0.52067173  0.15046208     0.07570
N774        N  0.86588740  0.38077748  0.12594470    -0.36270
N775        N  0.88420205  0.38037139  0.10130483    -0.28450
C776        C  0.89091220  0.35403715  0.09428670    -0.03690
C777        C  0.87624933  0.33703284  0.11576358     0.04920
C778        C  0.86037861  0.35471913  0.13519536     0.03010
H779        H  0.90480193  0.34789166  0.07431791     0.08120
H780        H  0.84589665  0.34904748  0.15469378     0.06950
N781        N  0.66469132  0.60116045  0.31532045    -0.27430
N782        N  0.65633161  0.57740216  0.32798530    -0.35290
C783        C  0.67164583  0.55690920  0.31479409     0.00910
C784        C  0.69017473  0.56834178  0.29241499     0.06930
C785        C  0.68517457  0.59638344  0.29328701    -0.06170
H786        H  0.66922218  0.53528874  0.32073822     0.07600
H787        H  0.69599373  0.61222639  0.27947348     0.08800
Cu788      Cu  0.62402316  0.57386756  0.36189667     0.44170
Cu789      Cu  0.64918423  0.63920708  0.32988506     0.41990
Cu790      Cu  0.59911569  0.63832117  0.39712435     0.43880
N791        N  0.59181868  0.57648456  0.39611957    -0.34820
N792        N  0.58361906  0.59998767  0.40998614    -0.29070
C793        C  0.56317201  0.59480122  0.43183777    -0.05170
C794        C  0.55802634  0.56675281  0.43139391     0.07040
C795        C  0.57643959  0.55572896  0.40838608     0.00840
H796        H  0.55246859  0.61039010  0.44644112     0.08490
H797        H  0.57873798  0.53422378  0.40139131     0.07570
N798        N  0.61452190  0.67422517  0.37628109    -0.36270
N799        N  0.63244025  0.67454895  0.35118689    -0.28450
C800        C  0.63768555  0.70087464  0.34281951    -0.03690
C801        C  0.62207463  0.71789337  0.36342050     0.04920
C802        C  0.60792271  0.70033210  0.38461946     0.03010
H803        H  0.65197316  0.70716706  0.32339396     0.08120
H804        H  0.59369182  0.70609754  0.40444103     0.06950
O805        O  0.96993706  0.52828715  0.44077649    -0.73090
O806        O  0.52758658  0.49014242  0.49561701    -0.74070
O807        O  0.97002098  0.48992604  0.49486262    -0.62690
O808        O  0.52852268  0.52846074  0.44137121    -0.71100
O809        O  0.52770461  0.56349116  0.47798070    -0.70650
O810        O  0.96938451  0.52490932  0.03155527    -0.61900
O811        O  0.52784682  0.52529129  0.03208504    -0.74410
O812        O  0.97014527  0.56317770  0.47760653    -0.73190
Cu813      Cu  0.99904066  0.50800839  0.46679237     1.04560
Cu814      Cu  0.99876696  0.54539944  0.00613152     1.04330
C815        C  0.96105029  0.55181945  0.45060705     0.93110
C816        C  0.53659805  0.50163947  0.02259701     0.92250
C817        C  0.96063691  0.50128451  0.02170976     0.84400
C818        C  0.53717204  0.55213628  0.45117309     0.90670
O819        O  0.72036993  0.56531759  0.24553108    -0.73090
O820        O  0.77830591  0.52656596  0.19077957    -0.74070
O821        O  0.71979632  0.52680145  0.19073945    -0.62690
O822        O  0.77802699  0.56515534  0.24546180    -0.71100
O823        O  0.77818147  0.53029152  0.28155034    -0.70650
O824        O  0.72012260  0.49186954  0.22673024    -0.61900
O825        O  0.77760537  0.49178276  0.22697976    -0.74410
O826        O  0.71965859  0.53035260  0.28146382    -0.73190
Cu827      Cu  0.74912779  0.54716011  0.21680579     1.04560
Cu828      Cu  0.74887273  0.50990917  0.25551364     1.04330
C829        C  0.71099846  0.55395367  0.27217925     0.93110
C830        C  0.78692517  0.50297729  0.20021976     0.92250
C831        C  0.71101152  0.50316821  0.19998292     0.84400
C832        C  0.78719207  0.55379799  0.27214252     0.90670
N833        N  0.58103224  0.45429724  0.06710232    -0.27430
N834        N  0.59061883  0.47815751  0.07859479    -0.35290
C835        C  0.57615035  0.49877062  0.06475287     0.00910
C836        C  0.55696651  0.48725419  0.04309606     0.06930
C837        C  0.56065351  0.45907933  0.04511481    -0.06170
H838        H  0.57965239  0.52049702  0.06966494     0.07600
H839        H  0.54903451  0.44318358  0.03208698     0.08800
Cu840      Cu  0.62366740  0.48156958  0.11138095     0.44170
Cu841      Cu  0.59507168  0.41618717  0.08258189     0.41990
Cu842      Cu  0.65093692  0.41676249  0.14182360     0.43880
N843        N  0.65665724  0.47878362  0.14424077    -0.34820
N844        N  0.66575610  0.45515685  0.15630462    -0.29070
C845        C  0.68623379  0.46033118  0.17816156    -0.05170
C846        C  0.69048788  0.48850425  0.17953663     0.07040
C847        C  0.67153111  0.49962108  0.15761531     0.00840
H848        H  0.69748962  0.44468209  0.19161800     0.08490
H849        H  0.66842806  0.52123794  0.15224766     0.07570
N850        N  0.63330398  0.38091816  0.12292750    -0.36270
N851        N  0.61249696  0.38069966  0.10162940    -0.28450
C852        C  0.60532344  0.35442374  0.09484818    -0.03690
C853        C  0.62281014  0.33711757  0.11231606     0.04920
C854        C  0.64012119  0.35477839  0.13004002     0.03010
H855        H  0.58807373  0.34874908  0.07921362     0.08120
H856        H  0.65655384  0.34904318  0.14689223     0.06950
C857        C  0.61988492  0.79332241  0.33775507    -0.26460
C858        C  0.62468578  0.80651605  0.36891753    -0.14530
C859        C  0.62866134  0.79034958  0.39818772     0.36100
C860        C  0.62675043  0.76155664  0.39551245    -0.25910
C861        C  0.62194043  0.74836197  0.36435344    -0.15150
C862        C  0.61797893  0.76452737  0.33507867     0.37180
N863        N  0.61110961  0.75277242  0.30259711    -0.89400
H864        H  0.61662440  0.80560236  0.31534167     0.18300
H865        H  0.63000955  0.74927828  0.41792755     0.18290
N866        N  0.63554566  0.80210227  0.43066602    -0.88430
H867        H  0.59225203  0.76100718  0.29534095     0.35660
H868        H  0.60790023  0.73154717  0.30387429     0.40760
H869        H  0.63877654  0.82332399  0.42938315     0.40380
H870        H  0.65439822  0.79385322  0.43791755     0.35270
C871        C  0.89614122  0.79275910  0.37937467    -0.26460
C872        C  0.87220827  0.80663703  0.36975851    -0.14530
C873        C  0.84915989  0.79104100  0.35925556     0.36100
C874        C  0.85079266  0.76209942  0.35810465    -0.25910
C875        C  0.87472386  0.74822167  0.36772556    -0.15150
C876        C  0.89777348  0.76381714  0.37822454     0.37180
N877        N  0.92301120  0.75039413  0.38682033    -0.89400
H878        H  0.91399185  0.80457159  0.38705139     0.18300
H879        H  0.83294194  0.75028673  0.35042862     0.18290
N880        N  0.82392137  0.80446246  0.35066006    -0.88430
H881        H  0.93782698  0.76482715  0.39431690     0.35660
H882        H  0.93047009  0.74082017  0.36488099     0.40760
H883        H  0.81645980  0.81403206  0.37260082     0.40380
H884        H  0.80910755  0.79002919  0.34315825     0.35270
C885        C  0.62952945  0.29402798  0.14456137    -0.26460
C886        C  0.62289819  0.30649162  0.11371892    -0.14530
C887        C  0.61812351  0.28939414  0.08505538     0.36100
C888        C  0.62011413  0.26072997  0.08798856    -0.25910
C889        C  0.62677045  0.24826931  0.11882716    -0.15150
C890        C  0.63151692  0.26536764  0.14749614     0.37180
N891        N  0.63744797  0.25450127  0.18021955    -0.89400
H892        H  0.63308381  0.30670215  0.16685823     0.18300
H893        H  0.61654942  0.24805167  0.06569752     0.18290
N894        N  0.61215525  0.30026595  0.05234505    -0.88430
H895        H  0.65681770  0.24549378  0.17973480     0.35660
H896        H  0.62262484  0.23975683  0.18638864     0.40760
H897        H  0.62698238  0.31499805  0.04614752     0.40380
H898        H  0.59279693  0.30929800  0.05287963     0.35270
C899        C  0.85058185  0.29288865  0.11837875    -0.26460
C900        C  0.87597054  0.30650810  0.11686288    -0.14530
C901        C  0.90029737  0.29072304  0.11776971     0.36100
C902        C  0.89865719  0.26195507  0.11978133    -0.25910
C903        C  0.87326947  0.24833456  0.12128880    -0.15150
C904        C  0.84894158  0.26411976  0.12039154     0.37180
N905        N  0.82231582  0.25160844  0.12003164    -0.89400
H906        H  0.83178003  0.30471478  0.11757758     0.18300
H907        H  0.91745938  0.25012949  0.12058170     0.18290
N908        N  0.92692297  0.30323434  0.11813803    -0.88430
H909        H  0.81907971  0.24161675  0.14294836     0.35660
H910        H  0.82150708  0.23714059  0.10027885     0.40760
H911        H  0.92772670  0.31770343  0.13788980     0.40380
H912        H  0.93016554  0.31322447  0.09522179     0.35270
N913        N  0.91598897  0.09987108  0.57935881    -0.27430
N914        N  0.90782002  0.07640691  0.59296184    -0.35290
C915        C  0.92298523  0.05562211  0.58018129     0.00910
C916        C  0.94122008  0.06657285  0.55708965     0.06930
C917        C  0.93620308  0.09461667  0.55713561    -0.06170
H918        H  0.92055624  0.03412861  0.58675520     0.07600
H919        H  0.94673166  0.11013568  0.54246370     0.08800
Cu920      Cu  0.87569845  0.07378097  0.62715478     0.44170
Cu921      Cu  0.90032398  0.13817717  0.59254884     0.41990
Cu922      Cu  0.84979674  0.13912190  0.65928297     0.43880
N923        N  0.84327769  0.07720009  0.66084936    -0.34820
N924        N  0.83470473  0.10095179  0.67369053    -0.29070
C925        C  0.81398845  0.09608073  0.69529220    -0.05170
C926        C  0.80906792  0.06798924  0.69565189     0.07040
C927        C  0.82788771  0.05662089  0.67346154     0.00840
H928        H  0.80284443  0.11189818  0.70898367     0.08490
H929        H  0.83036795  0.03500556  0.66712485     0.07570
N930        N  0.86504327  0.17445689  0.63674470    -0.36270
N931        N  0.88336061  0.17407227  0.61210800    -0.28450
C932        C  0.88887055  0.20014066  0.60289956    -0.03690
C933        C  0.87299753  0.21780875  0.62235592     0.04920
C934        C  0.85833172  0.20078371  0.64380331     0.03010
H935        H  0.90334655  0.20583165  0.58340315     0.08120
H936        H  0.84443081  0.20690785  0.66376992     0.06950
O937        O  0.97050905  0.06303469  0.50954501    -0.73090
O938        O  0.52758222  0.02441164  0.95368730    -0.74070
O939        O  0.96907165  0.02454391  0.95496281    -0.62690
O940        O  0.52798529  0.06286156  0.50841258    -0.71100
O941        O  0.52881198  0.02793789  0.54440078    -0.70650
O942        O  0.96972201  0.98966327  0.99101611    -0.61900
O943        O  0.52737448  0.98943447  0.98960829    -0.74410
O944        O  0.97030114  0.02823487  0.54572576    -0.73190
Cu945      Cu  0.99878334  0.04487746  0.98032234     1.04560
Cu946      Cu  0.99906724  0.00761613  0.51901113     1.04330
C947        C  0.96157431  0.05184326  0.53650581     0.93110
C948        C  0.53636521  0.00080172  0.96276386     0.92250
C949        C  0.96018321  0.00104135  0.96454911     0.84400
C950        C  0.53749239  0.05155134  0.53493834     0.90670
N951        N  0.66825672  0.10057604  0.66654773    -0.27430
N952        N  0.65861210  0.07668560  0.65522640    -0.35290
C953        C  0.67282552  0.05609534  0.66950941     0.00910
C954        C  0.69189206  0.06765885  0.69128773     0.06930
C955        C  0.68841043  0.09584004  0.68887108    -0.06170
H956        H  0.66918900  0.03435385  0.66486327     0.07600
H957        H  0.69999591  0.11176294  0.70189439     0.08800
Cu958      Cu  0.62568326  0.07320881  0.62226134     0.44170
Cu959      Cu  0.65448961  0.13864265  0.65050122     0.41990
Cu960      Cu  0.59860087  0.13794541  0.59129446     0.43880
N961        N  0.59256206  0.07594457  0.58959166    -0.34820
N962        N  0.58351345  0.09953711  0.57737341    -0.29070
C963        C  0.56280745  0.09434158  0.55586154    -0.05170
C964        C  0.55835234  0.06619446  0.55487092     0.07040
C965        C  0.57743385  0.05511037  0.57665419     0.00840
H966        H  0.55151346  0.10996871  0.54241488     0.08490
H967        H  0.58040731  0.03351941  0.58227530     0.07570
N968        N  0.61637299  0.17382545  0.60983946    -0.36270
N969        N  0.63719167  0.17408591  0.63112020    -0.28450
C970        C  0.64439480  0.20037468  0.63776595    -0.03690
C971        C  0.62690956  0.21764435  0.62023886     0.04920
C972        C  0.60957686  0.19994872  0.60260431     0.03010
H973        H  0.66163499  0.20608102  0.65339853     0.08120
H974        H  0.59311047  0.20564890  0.58578350     0.06950
N975        N  0.83251538  0.95552177  0.82747204    -0.27430
N976        N  0.84027968  0.97897962  0.84193265    -0.35290
C977        C  0.82480936  0.99962959  0.82986118     0.00910
C978        C  0.80678650  0.98856797  0.80638005     0.06930
C979        C  0.81226794  0.96062757  0.80544436    -0.06170
H980        H  0.82687995  0.02110158  0.83718085     0.07600
H981        H  0.80201401  0.94505761  0.79024581     0.08800
Cu982      Cu  0.87222716  0.98159971  0.87639219     0.44170
Cu983      Cu  0.84842143  0.91731229  0.83954111     0.41990
Cu984      Cu  0.89709565  0.91598875  0.90793290     0.43880
N985        N  0.90456750  0.97785236  0.91003301    -0.34820
N986        N  0.91276592  0.95405884  0.92259089    -0.29070
C987        C  0.93353043  0.95875904  0.94422001    -0.05170
C988        C  0.93888461  0.98677034  0.94490252     0.07040
C989        C  0.92025998  0.99827638  0.92287668     0.00840
H990        H  0.94437942  0.94286945  0.95775920     0.08490
H991        H  0.91809534  0.01989030  0.91683971     0.07570
N992        N  0.88119039  0.88072187  0.88520125    -0.36270
N993        N  0.86379333  0.88125227  0.85966333    -0.28450
C994        C  0.85778849  0.85522613  0.85017825    -0.03690
C995        C  0.87194367  0.83730206  0.87093774     0.04920
C996        C  0.88672136  0.85431865  0.89268175     0.03010
H997        H  0.84444204  0.84992969  0.82929146     0.08120
H998        H  0.90041565  0.84801175  0.91264319     0.06950
O999        O  0.77759578  0.99169819  0.75890947    -0.73090
O1000       O  0.72078539  0.02960915  0.70306051    -0.74070
O1001       O  0.77922256  0.02993777  0.70496214    -0.62690
O1002       O  0.72005544  0.99144840  0.75719148    -0.71100
O1003       O  0.71873530  0.02649262  0.79375675    -0.70650
O1004       O  0.77808525  0.06493321  0.74161811    -0.61900
O1005       O  0.72053822  0.06479291  0.73947477    -0.74410
O1006       O  0.77730946  0.02660101  0.79571808    -0.73190
Cu1007     Cu  0.74943643  0.00949173  0.72970986     1.04560
Cu1008     Cu  0.74862043  0.04690244  0.76900652     1.04330
C1009       C  0.78631414  0.00305657  0.78609786     0.93110
C1010       C  0.71192701  0.05328289  0.71230004     0.92250
C1011       C  0.78785590  0.05355217  0.71499923     0.84400
C1012       C  0.71020795  0.00282104  0.78377625     0.90670
N1013       N  0.66321098  0.95497725  0.82401592    -0.27430
N1014       N  0.65499984  0.97844746  0.83795828    -0.35290
C1015       C  0.67053592  0.99920394  0.82599248     0.00910
C1016       C  0.68907180  0.98821658  0.80310999     0.06930
C1017       C  0.68382924  0.96018855  0.80242103    -0.06170
H1018       H  0.66830497  0.02067907  0.83316359     0.07600
H1019       H  0.69460945  0.94462053  0.78787132     0.08800
Cu1020     Cu  0.62269416  0.98101602  0.87204540     0.44170
Cu1021     Cu  0.64758647  0.91662308  0.83653858     0.41990
Cu1022     Cu  0.59751213  0.91561232  0.90376020     0.43880
N1023       N  0.59047997  0.97742266  0.90608846    -0.34820
N1024       N  0.58213278  0.95362953  0.91866774    -0.29070
C1025       C  0.56181889  0.95836710  0.94095379    -0.05170
C1026       C  0.55691065  0.98642203  0.94208034     0.07040
C1027       C  0.57531822  0.99790237  0.91958489     0.00840
H1028       H  0.55107899  0.94249636  0.95481199     0.08490
H1029       H  0.57780675  0.01955016  0.91382528     0.07570
N1030       N  0.61417375  0.88030766  0.88225598    -0.36270
N1031       N  0.63209683  0.88067596  0.85716820    -0.28450
C1032       C  0.63867905  0.85458233  0.84873893    -0.03690
C1033       C  0.62451043  0.83698364  0.86987395     0.04920
C1034       C  0.60890749  0.85396648  0.89052826     0.03010
H1035       H  0.65293338  0.84885263  0.82892772     0.08120
H1036       H  0.59463605  0.84764025  0.90995504     0.06950
N1037       N  0.91438721  0.59933802  0.91000238    -0.27430
N1038       N  0.90656924  0.57589225  0.89555526    -0.35290
C1039       C  0.92214619  0.55524710  0.90742163     0.00910
C1040       C  0.94030003  0.56629528  0.93075273     0.06930
C1041       C  0.93478284  0.59422575  0.93182032    -0.06170
H1042       H  0.92011177  0.53379489  0.89999738     0.07600
H1043       H  0.94515451  0.60979370  0.94689912     0.08800
Cu1044     Cu  0.87454292  0.57327076  0.86121525     0.44170
Cu1045     Cu  0.89846262  0.63755805  0.89803472     0.41990
Cu1046     Cu  0.84981038  0.63886415  0.82959873     0.43880
N1047       N  0.84229694  0.57700767  0.82744194    -0.34820
N1048       N  0.83415959  0.60080634  0.81484148    -0.29070
C1049       C  0.81354599  0.59610703  0.79299329    -0.05170
C1050       C  0.80822325  0.56808960  0.79220897     0.07040
C1051       C  0.82671009  0.55657898  0.81440818     0.00840
H1052       H  0.80281405  0.61199426  0.77931009     0.08490
H1053       H  0.82890233  0.53495285  0.82036642     0.07570
N1054       N  0.86571925  0.67413339  0.85233179    -0.36270
N1055       N  0.88310625  0.67361002  0.87788107    -0.28450
C1056       C  0.88912112  0.69963855  0.88734654    -0.03690
C1057       C  0.87498203  0.71755677  0.86656390     0.04920
C1058       C  0.86020439  0.70053508  0.84482594     0.03010
H1059       H  0.90246359  0.70494134  0.90823505     0.08120
H1060       H  0.84652109  0.70683765  0.82485096     0.06950
N1061       N  0.91438714  0.45384486  0.56398401    -0.27430
N1062       N  0.90583981  0.47761151  0.57680830    -0.35290
C1063       C  0.92105623  0.49819850  0.56390222     0.00910
C1064       C  0.93972787  0.48681977  0.54152745     0.06930
C1065       C  0.93490721  0.45871249  0.54209525    -0.06170
H1066       H  0.91851154  0.51983161  0.57010136     0.07600
H1067       H  0.94595637  0.44289080  0.52829287     0.08800
Cu1068     Cu  0.87354112  0.48103990  0.61067514     0.44170
Cu1069     Cu  0.89941335  0.41568588  0.57865728     0.41990
Cu1070     Cu  0.84888615  0.41667924  0.64540743     0.43880
N1071       N  0.84130661  0.47842884  0.64470151    -0.34820
N1072       N  0.83310942  0.45498641  0.65833498    -0.29070
C1073       C  0.81270085  0.46024634  0.68028069    -0.05170
C1074       C  0.80758988  0.48826902  0.68010686     0.07040
C1075       C  0.82597281  0.49920293  0.65718483     0.00840
H1076       H  0.80206982  0.44473641  0.69485632     0.08490
H1077       H  0.82833749  0.52067173  0.65046208     0.07570
N1078       N  0.86588743  0.38077748  0.62594473    -0.36270
N1079       N  0.88420208  0.38037138  0.60130485    -0.28450
C1080       C  0.89091222  0.35403714  0.59428672    -0.03690
C1081       C  0.87624935  0.33703284  0.61576361     0.04920
C1082       C  0.86037864  0.35471913  0.63519540     0.03010
H1083       H  0.90480195  0.34789165  0.57431793     0.08120
H1084       H  0.84589668  0.34904748  0.65469382     0.06950
N1085       N  0.66469134  0.60116044  0.81532047    -0.27430
N1086       N  0.65633162  0.57740215  0.82798531    -0.35290
C1087       C  0.67164584  0.55690919  0.81479410     0.00910
C1088       C  0.69017474  0.56834177  0.79241500     0.06930
C1089       C  0.68517459  0.59638344  0.79328702    -0.06170
H1090       H  0.66922218  0.53528873  0.82073822     0.07600
H1091       H  0.69599375  0.61222639  0.77947350     0.08800
Cu1092     Cu  0.62402317  0.57386756  0.86189668     0.44170
Cu1093     Cu  0.64918425  0.63920707  0.82988509     0.41990
Cu1094     Cu  0.59911571  0.63832116  0.89712437     0.43880
N1095       N  0.59181869  0.57648455  0.89611957    -0.34820
N1096       N  0.58361907  0.59998766  0.90998616    -0.29070
C1097       C  0.56317202  0.59480121  0.93183778    -0.05170
C1098       C  0.55802635  0.56675280  0.93139391     0.07040
C1099       C  0.57643959  0.55572895  0.90838608     0.00840
H1100       H  0.55246861  0.61039009  0.94644113     0.08490
H1101       H  0.57873798  0.53422378  0.90139131     0.07570
N1102       N  0.61452193  0.67422516  0.87628112    -0.36270
N1103       N  0.63244028  0.67454894  0.85118693    -0.28450
C1104       C  0.63768557  0.70087463  0.84281954    -0.03690
C1105       C  0.62207465  0.71789337  0.86342053     0.04920
C1106       C  0.60792274  0.70033209  0.88461949     0.03010
H1107       H  0.65197318  0.70716705  0.82339400     0.08120
H1108       H  0.59369184  0.70609753  0.90444106     0.06950
O1109       O  0.96993708  0.52828715  0.94077650    -0.73090
O1110       O  0.52758657  0.49014241  0.99561701    -0.74070
O1111       O  0.97002098  0.48992603  0.99486263    -0.62690
O1112       O  0.52852269  0.52846073  0.94137121    -0.71100
O1113       O  0.52770461  0.56349116  0.97798069    -0.70650
O1114       O  0.96938452  0.52490933  0.53155526    -0.61900
O1115       O  0.52784684  0.52529130  0.53208504    -0.74410
O1116       O  0.97014528  0.56317769  0.97760653    -0.73190
Cu1117     Cu  0.99904067  0.50800839  0.96679238     1.04560
Cu1118     Cu  0.99876696  0.54539945  0.50613151     1.04330
C1119       C  0.96105030  0.55181945  0.95060706     0.93110
C1120       C  0.53659806  0.50163948  0.52259701     0.92250
C1121       C  0.96063692  0.50128451  0.52170975     0.84400
C1122       C  0.53717205  0.55213627  0.95117309     0.90670
O1123       O  0.72036994  0.56531759  0.74553109    -0.73090
O1124       O  0.77830593  0.52656595  0.69077958    -0.74070
O1125       O  0.71979634  0.52680144  0.69073946    -0.62690
O1126       O  0.77802700  0.56515534  0.74546181    -0.71100
O1127       O  0.77818148  0.53029151  0.78155034    -0.70650
O1128       O  0.72012261  0.49186954  0.72673025    -0.61900
O1129       O  0.77760538  0.49178276  0.72697976    -0.74410
O1130       O  0.71965860  0.53035260  0.78146383    -0.73190
Cu1131     Cu  0.74912780  0.54716011  0.71680580     1.04560
Cu1132     Cu  0.74887274  0.50990917  0.75551364     1.04330
C1133       C  0.71099847  0.55395366  0.77217925     0.93110
C1134       C  0.78692519  0.50297728  0.70021977     0.92250
C1135       C  0.71101153  0.50316820  0.69998292     0.84400
C1136       C  0.78719208  0.55379798  0.77214253     0.90670
N1137       N  0.58103224  0.45429725  0.56710232    -0.27430
N1138       N  0.59061885  0.47815752  0.57859479    -0.35290
C1139       C  0.57615037  0.49877062  0.56475287     0.00910
C1140       C  0.55696652  0.48725420  0.54309606     0.06930
C1141       C  0.56065351  0.45907933  0.54511482    -0.06170
H1142       H  0.57965241  0.52049702  0.56966492     0.07600
H1143       H  0.54903451  0.44318359  0.53208699     0.08800
Cu1144     Cu  0.62366741  0.48156958  0.61138094     0.44170
Cu1145     Cu  0.59507168  0.41618718  0.58258190     0.41990
Cu1146     Cu  0.65093692  0.41676249  0.64182361     0.43880
N1147       N  0.65665726  0.47878362  0.64424076    -0.34820
N1148       N  0.66575611  0.45515685  0.65630462    -0.29070
C1149       C  0.68623380  0.46033118  0.67816156    -0.05170
C1150       C  0.69048789  0.48850425  0.67953663     0.07040
C1151       C  0.67153112  0.49962108  0.65761530     0.00840
H1152       H  0.69748962  0.44468209  0.69161801     0.08490
H1153       H  0.66842808  0.52123794  0.65224765     0.07570
N1154       N  0.63330398  0.38091817  0.62292752    -0.36270
N1155       N  0.61249696  0.38069966  0.60162942    -0.28450
C1156       C  0.60532343  0.35442374  0.59484820    -0.03690
C1157       C  0.62281014  0.33711757  0.61231608     0.04920
C1158       C  0.64012119  0.35477840  0.63004003     0.03010
H1159       H  0.58807373  0.34874908  0.57921364     0.08120
H1160       H  0.65655385  0.34904318  0.64689224     0.06950
C1161       C  0.61988491  0.79332240  0.83775507    -0.26460
C1162       C  0.62468577  0.80651605  0.86891753    -0.14530
C1163       C  0.62866134  0.79034958  0.89818773     0.36100
C1164       C  0.62675044  0.76155664  0.89551247    -0.25910
C1165       C  0.62194044  0.74836196  0.86435347    -0.15150
C1166       C  0.61797893  0.76452735  0.83507868     0.37180
N1167       N  0.61110962  0.75277239  0.80259714    -0.89400
H1168       H  0.61662439  0.80560234  0.81534167     0.18300
H1169       H  0.63000956  0.74927829  0.91792757     0.18290
N1170       N  0.63554566  0.80210228  0.93066602    -0.88430
H1171       H  0.59225203  0.76100715  0.79534097     0.35660
H1172       H  0.60790025  0.73154714  0.80387432     0.40760
H1173       H  0.63877652  0.82332401  0.92938314     0.40380
H1174       H  0.65439822  0.79385324  0.93791756     0.35270
C1175       C  0.89614124  0.79275910  0.87937466    -0.26460
C1176       C  0.87220829  0.80663703  0.86975851    -0.14530
C1177       C  0.84915991  0.79104100  0.85925558     0.36100
C1178       C  0.85079267  0.76209942  0.85810466    -0.25910
C1179       C  0.87472387  0.74822167  0.86772557    -0.15150
C1180       C  0.89777350  0.76381714  0.87822453     0.37180
N1181       N  0.92301123  0.75039413  0.88682030    -0.89400
H1182       H  0.91399188  0.80457159  0.88705137     0.18300
H1183       H  0.83294195  0.75028673  0.85042864     0.18290
N1184       N  0.82392138  0.80446246  0.85066009    -0.88430
H1185       H  0.93782700  0.76482715  0.89431686     0.35660
H1186       H  0.93047010  0.74082017  0.86488096     0.40760
H1187       H  0.81645982  0.81403206  0.87260084     0.40380
H1188       H  0.80910756  0.79002919  0.84315828     0.35270
C1189       C  0.62952947  0.29402798  0.64456137    -0.26460
C1190       C  0.62289819  0.30649162  0.61371893    -0.14530
C1191       C  0.61812350  0.28939414  0.58505539     0.36100
C1192       C  0.62011413  0.26072997  0.58798857    -0.25910
C1193       C  0.62677046  0.24826931  0.61882716    -0.15150
C1194       C  0.63151694  0.26536764  0.64749614     0.37180
N1195       N  0.63744801  0.25450127  0.68021955    -0.89400
H1196       H  0.63308384  0.30670214  0.66685823     0.18300
H1197       H  0.61654941  0.24805167  0.56569753     0.18290
N1198       N  0.61215522  0.30026595  0.55234507    -0.88430
H1199       H  0.65681774  0.24549378  0.67973479     0.35660
H1200       H  0.62262489  0.23975683  0.68638865     0.40760
H1201       H  0.62698235  0.31499806  0.54614753     0.40380
H1202       H  0.59279690  0.30929799  0.55287967     0.35270
C1203       C  0.85058187  0.29288866  0.61837876    -0.26460
C1204       C  0.87597055  0.30650809  0.61686290    -0.14530
C1205       C  0.90029738  0.29072304  0.61776974     0.36100
C1206       C  0.89865720  0.26195507  0.61978135    -0.25910
C1207       C  0.87326948  0.24833456  0.62128880    -0.15150
C1208       C  0.84894158  0.26411977  0.62039154     0.37180
N1209       N  0.82231582  0.25160845  0.62003162    -0.89400
H1210       H  0.83178005  0.30471479  0.61757758     0.18300
H1211       H  0.91745938  0.25012948  0.62058171     0.18290
N1212       N  0.92692298  0.30323433  0.61813807    -0.88430
H1213       H  0.81907970  0.24161676  0.64294834     0.35660
H1214       H  0.82150709  0.23714061  0.60027883     0.40760
H1215       H  0.92772672  0.31770341  0.63788985     0.40380
H1216       H  0.93016556  0.31322446  0.59522183     0.35270
loop_ 
_geom_bond_atom_site_label_1 
_geom_bond_atom_site_label_2 
_geom_bond_distance 
_geom_bond_site_symmetry_2 
_ccdc_geom_bond_type 
N1            N2   1.322       .  A
N1            C5   1.344       .  A
N1           Cu9   2.072       .  S
N2            C3   1.346       .  A
N2           Cu8   2.073       .  S
C3            C4   1.382       .  A
C3            H6   1.082       .  S
C4            C5   1.382       .  A
C4           C35   1.467       .  S
C5            H7   1.082       .  S
Cu8          N11   2.073       .  S
Cu9          N19   2.072       .  S
Cu10         N12   2.073       .  S
Cu10         N18   2.073       .  S
N11          N12   1.323       .  A
N11          C15   1.346       .  A
N12          C13   1.344       .  A
C13          C14   1.382       .  A
C13          H16   1.082       .  S
C14          C15   1.382       .  A
C14          C99   1.466       .  S
C15          H17   1.082       .  S
N18          N19   1.321       .  A
N18          C22   1.345       .  A
N19          C20   1.344       .  A
C20          C21   1.384       .  A
C20          H23   1.082       .  S
C21          C22   1.385       .  A
C21         C295   1.480       .  S
C22          H24   1.080       .  S
O25          C35   1.276       .  A
O25        Cu337   2.000   1_554  S
O26          C36   1.278       .  A
O26        Cu641   2.014   1_455  S
O27          C37   1.278       .  A
O27         Cu33   2.014       .  S
O28          C38   1.276       .  A
O28        Cu945   2.001   1_454  S
O29          C38   1.278       .  A
O29        Cu642   2.015   1_455  S
O30          C37   1.277   1_565  A
O30        Cu338   2.003   1_565  S
O31          C36   1.277   1_565  A
O31        Cu946   2.005   1_465  S
O32          C35   1.278       .  A
O32         Cu34   2.018       .  S
Cu33        O329   2.000       .  S
Cu33        O634   2.014       .  S
Cu33        O940   2.001       .  S
Cu33       Cu338   2.377       .  S
Cu34        O637   2.015       .  S
Cu34        O334   2.003   1_544  S
Cu34        O943   2.005   1_544  S
Cu34       Cu337   2.377   1_554  S
C36         C114   1.467   1_545  S
C37          C76   1.466   1_545  S
C38          C52   1.466       .  S
N39          N40   1.323       .  A
N39          C43   1.344       .  A
N39         Cu47   2.071       .  S
N40          C41   1.346       .  A
N40         Cu46   2.076       .  S
C41          C42   1.382       .  A
C41          H44   1.082       .  S
C42          C43   1.381       .  A
C42          C98   1.466       .  S
C43          H45   1.082       .  S
Cu46         N49   2.076       .  S
Cu47         N57   2.070       .  S
Cu48         N50   2.069       .  S
Cu48         N56   2.069       .  S
N49          N50   1.323       .  A
N49          C53   1.346       .  A
N50          C51   1.343       .  A
C51          C52   1.381       .  A
C51          H54   1.082       .  S
C52          C53   1.383       .  A
C53          H55   1.082       .  S
N56          N57   1.320       .  A
N56          C60   1.343       .  A
N57          C58   1.344       .  A
C58          C59   1.388       .  A
C58          H61   1.078       .  S
C59          C60   1.387       .  A
C59         C281   1.486       .  S
C60          H62   1.082       .  S
N63          N64   1.322       .  A
N63          C67   1.343       .  A
N63         Cu71   2.070       .  S
N64          C65   1.347       .  A
N64         Cu70   2.075       .  S
C65          C66   1.383       .  A
C65          H68   1.082   1_565  S
C66          C67   1.381       .  A
C66          C97   1.467   1_565  S
C67          H69   1.082       .  S
Cu70         N73   2.075       .  S
Cu71         N81   2.070       .  S
Cu72         N74   2.073       .  S
Cu72         N80   2.073       .  S
N73          N74   1.323       .  A
N73          C77   1.346       .  A
N74          C75   1.344       .  A
C75          C76   1.382       .  A
C75          H78   1.082       .  S
C76          C77   1.382       .  A
C77          H79   1.082   1_565  S
N80          N81   1.321       .  A
N80          C84   1.344       .  A
N81          C82   1.344       .  A
C82          C83   1.387       .  A
C82          H85   1.081       .  S
C83          C84   1.387       .  A
C83         C264   1.486       .  S
C84          H86   1.082       .  S
O87          C97   1.276   1_565  A
O87         Cu95   1.999   1_565  S
O88          C98   1.277       .  A
O88         Cu95   2.012       .  S
O89          C99   1.278       .  A
O89         Cu95   2.014       .  S
O90         C100   1.277   1_565  A
O90         Cu95   2.002   1_565  S
O91         C100   1.278       .  A
O91         Cu96   2.017       .  S
O92          C99   1.276       .  A
O92         Cu96   2.002       .  S
O93          C98   1.277       .  A
O93         Cu96   2.006       .  S
O94          C97   1.279       .  A
O94         Cu96   2.019       .  S
Cu95        Cu96   2.377       .  S
C100        C104   1.467   1_545  S
N101        N102   1.323       .  A
N101        C105   1.344       .  A
N101       Cu109   2.071       .  S
N102        C103   1.347       .  A
N102       Cu108   2.076       .  S
C103        C104   1.383       .  A
C103        H106   1.082   1_565  S
C104        C105   1.381       .  A
C105        H107   1.082       .  S
Cu108       N111   2.076       .  S
Cu109       N119   2.071       .  S
Cu110       N112   2.072       .  S
Cu110       N118   2.072       .  S
N111        N112   1.323       .  A
N111        C115   1.346       .  A
N112        C113   1.344       .  A
C113        C114   1.382       .  A
C113        H116   1.082       .  S
C114        C115   1.383       .  A
C115        H117   1.082   1_565  S
N118        N119   1.322       .  A
N118        C122   1.345       .  A
N119        C120   1.345       .  A
C120        C121   1.383       .  A
C120        H123   1.082       .  S
C121        C122   1.384       .  A
C121        C250   1.477       .  S
C122        H124   1.082       .  S
N125        N126   1.322       .  A
N125        C129   1.343       .  A
N125       Cu133   2.070       .  S
N126        C127   1.347       .  A
N126       Cu132   2.075       .  S
C127        C128   1.383       .  A
C127        H130   1.082       .  S
C128        C129   1.381       .  A
C128        C207   1.467       .  S
C129        H131   1.082       .  S
Cu132       N135   2.075       .  S
Cu133       N143   2.070       .  S
Cu134       N136   2.073       .  S
Cu134       N142   2.073       .  S
N135        N136   1.323       .  A
N135        C139   1.346       .  A
N136        C137   1.344       .  A
C137        C138   1.382       .  A
C137        H140   1.082       .  S
C138        C139   1.382       .  A
C138        C224   1.466       .  S
C139        H141   1.082       .  S
N142        N143   1.321       .  A
N142        C146   1.344       .  A
N143        C144   1.344       .  A
C144        C145   1.387       .  A
C144        H147   1.081       .  S
C145        C146   1.387       .  A
C145        C267   1.486       .  S
C146        H148   1.082       .  S
N149        N150   1.323       .  A
N149        C153   1.344       .  A
N149       Cu157   2.074       .  S
N150        C151   1.346       .  A
N150       Cu156   2.073       .  S
C151        C152   1.382       .  A
C151        H154   1.082       .  S
C152        C153   1.382       .  A
C152        C209   1.466       .  S
C153        H155   1.082       .  S
Cu156       N159   2.073       .  S
Cu157       N167   2.074       .  S
Cu158       N160   2.072       .  S
Cu158       N166   2.071       .  S
N159        N160   1.322       .  A
N159        C163   1.346       .  A
N160        C161   1.344       .  A
C161        C162   1.382       .  A
C161        H164   1.082       .  S
C162        C163   1.382       .  A
C162        C222   1.466       .  S
C163        H165   1.082       .  S
N166        N167   1.321       .  A
N166        C170   1.344       .  A
N167        C168   1.345       .  A
C168        C169   1.386       .  A
C168        H171   1.080       .  S
C169        C170   1.384       .  A
C169        C292   1.480       .  S
C170        H172   1.082       .  S
N173        N174   1.323       .  A
N173        C177   1.344       .  A
N173       Cu181   2.072       .  S
N174        C175   1.346       .  A
N174       Cu180   2.076       .  S
C175        C176   1.382       .  A
C175        H178   1.082       .  S
C176        C177   1.382       .  A
C176        C221   1.467       .  S
C177        H179   1.082       .  S
Cu180       N183   2.076       .  S
Cu181       N191   2.072       .  S
Cu182       N184   2.071       .  S
Cu182       N190   2.071       .  S
N183        N184   1.323       .  A
N183        C187   1.347       .  A
N184        C185   1.344       .  A
C185        C186   1.381       .  A
C185        H188   1.082       .  S
C186        C187   1.383       .  A
C186        C210   1.467       .  S
C187        H189   1.082       .  S
N190        N191   1.322       .  A
N190        C194   1.345       .  A
N191        C192   1.345       .  A
C192        C193   1.384       .  A
C192        H195   1.082       .  S
C193        C194   1.383       .  A
C193        C253   1.477       .  S
C194        H196   1.082       .  S
O197        C207   1.278       .  A
O197       Cu205   2.018       .  S
O198        C512   1.277       .  A
O198       Cu813   2.005   1_455  S
O199        C513   1.277       .  A
O199       Cu205   2.003       .  S
O200        C210   1.278       .  A
O200       Cu813   2.017   1_455  S
O201        C210   1.277       .  A
O201      Cu1118   2.002   1_455  S
O202        C209   1.278       .  A
O202       Cu206   2.014       .  S
O203        C208   1.277       .  A
O203       Cu814   2.012   1_455  S
O204        C207   1.276       .  A
O204       Cu510   1.999       .  S
Cu205       O806   2.005       .  S
Cu205       O808   2.017       .  S
Cu205      Cu510   2.377       .  S
Cu206      O1113   2.002   1_554  S
Cu206       O811   2.012       .  S
Cu206       O508   1.999   1_554  S
Cu206      Cu509   2.377   1_554  S
C208        C228   1.466       .  S
C208        O502   1.277   1_554  A
C209        O503   1.277   1_554  A
O211        C221   1.277       .  A
O211       Cu219   2.005       .  S
O212        C222   1.278       .  A
O212       Cu219   2.017       .  S
O213        C223   1.278       .  A
O213       Cu219   2.015       .  S
O214        C224   1.277       .  A
O214       Cu219   2.003       .  S
O215        C224   1.278       .  A
O215       Cu220   2.014       .  S
O216        C223   1.277       .  A
O216       Cu220   2.001       .  S
O217        C222   1.276       .  A
O217       Cu220   1.999       .  S
O218        C221   1.278       .  A
O218       Cu220   2.013       .  S
Cu219      Cu220   2.377       .  S
C223        C238   1.466       .  S
N225        N226   1.323       .  A
N225        C229   1.344       .  A
N225       Cu233   2.070       .  S
N226        C227   1.346       .  A
N226       Cu232   2.076       .  S
C227        C228   1.382       .  A
C227        H230   1.082       .  S
C228        C229   1.381       .  A
C229        H231   1.082       .  S
Cu232       N235   2.076       .  S
Cu233       N243   2.070       .  S
Cu234       N236   2.070       .  S
Cu234       N242   2.070       .  S
N235        N236   1.323       .  A
N235        C239   1.346       .  A
N236        C237   1.344       .  A
C237        C238   1.381       .  A
C237        H240   1.082       .  S
C238        C239   1.383       .  A
C239        H241   1.082       .  S
N242        N243   1.320       .  A
N242        C246   1.343       .  A
N243        C244   1.344       .  A
C244        C245   1.388       .  A
C244        H247   1.078       .  S
C245        C246   1.387       .  A
C245        C278   1.486       .  S
C246        H248   1.082       .  S
C249        C250   1.403       .  A
C249        C254   1.401       .  A
C249        H256   1.084       .  S
C250        C251   1.418       .  A
C251        C252   1.401       .  A
C251        N258   1.440       .  S
C252        C253   1.403       .  A
C252        H257   1.084       .  S
C253        C254   1.418       .  A
C254        N255   1.440       .  S
N255        H259   1.046       .  S
N255        H260   1.042       .  S
N258        H261   1.042       .  S
N258        H262   1.046       .  S
C263        C264   1.404       .  A
C263        C268   1.405       .  A
C263        H270   1.083       .  S
C264        C265   1.414       .  A
C265        C266   1.405       .  A
C265        N272   1.437       .  S
C266        C267   1.404       .  A
C266        H271   1.083       .  S
C267        C268   1.414       .  A
C268        N269   1.437       .  S
N269        H273   1.046       .  S
N269        H274   1.046       .  S
N272        H275   1.046       .  S
N272        H276   1.046       .  S
C277        C278   1.405       .  A
C277        C282   1.398       .  A
C277        H284   1.084       .  S
C278        C279   1.417       .  A
C279        C280   1.399       .  A
C279        N286   1.432       .  S
C280        C281   1.405       .  A
C280        H285   1.084       .  S
C281        C282   1.417       .  A
C282        N283   1.432       .  S
N283        H287   1.043       .  S
N283        H288   1.045       .  S
N286        H289   1.045       .  S
N286        H290   1.043       .  S
C291        C292   1.403       .  A
C291        C296   1.399       .  A
C291        H298   1.084       .  S
C292        C293   1.415       .  A
C293        C294   1.399       .  A
C293        N300   1.432       .  S
C294        C295   1.403       .  A
C294        H299   1.084       .  S
C295        C296   1.415       .  A
C296        N297   1.432       .  S
N297        H301   1.043       .  S
N297        H302   1.046       .  S
N300        H303   1.046       .  S
N300        H304   1.043       .  S
N305        N306   1.322       .  A
N305        C309   1.344       .  A
N305       Cu313   2.072       .  S
N306        C307   1.346       .  A
N306       Cu312   2.073       .  S
C307        C308   1.382       .  A
C307        H310   1.082       .  S
C308        C309   1.382       .  A
C308        C339   1.467       .  S
C309        H311   1.082       .  S
Cu312       N315   2.073       .  S
Cu313       N323   2.072       .  S
Cu314       N316   2.073       .  S
Cu314       N322   2.073       .  S
N315        N316   1.323       .  A
N315        C319   1.346       .  A
N316        C317   1.344       .  A
C317        C318   1.382       .  A
C317        H320   1.082       .  S
C318        C319   1.382       .  A
C318        C403   1.466       .  S
C319        H321   1.082       .  S
N322        N323   1.321       .  A
N322        C326   1.345       .  A
N323        C324   1.344       .  A
C324        C325   1.384       .  A
C324        H327   1.082       .  S
C325        C326   1.385       .  A
C325        C599   1.480       .  S
C326        H328   1.080       .  S
O329        C339   1.276       .  A
O330        C340   1.278       .  A
O330       Cu945   2.014   1_455  S
O331        C341   1.278       .  A
O331       Cu337   2.014       .  S
O332        C342   1.276       .  A
O332       Cu641   2.001   1_455  S
O333        C342   1.278       .  A
O333       Cu946   2.015   1_455  S
O334        C341   1.277   1_565  A
O335        C340   1.277   1_565  A
O335       Cu642   2.005   1_466  S
O336        C339   1.278       .  A
O336       Cu338   2.018       .  S
Cu337       O938   2.014       .  S
Cu337       O636   2.001   1_556  S
Cu338       O941   2.015       .  S
Cu338       O639   2.005   1_545  S
C340        C418   1.467   1_545  S
C341        C380   1.466   1_545  S
C342        C356   1.466       .  S
N343        N344   1.323       .  A
N343        C347   1.344       .  A
N343       Cu351   2.071       .  S
N344        C345   1.346       .  A
N344       Cu350   2.076       .  S
C345        C346   1.382       .  A
C345        H348   1.082       .  S
C346        C347   1.381       .  A
C346        C402   1.466       .  S
C347        H349   1.082       .  S
Cu350       N353   2.076       .  S
Cu351       N361   2.070       .  S
Cu352       N354   2.069       .  S
Cu352       N360   2.069       .  S
N353        N354   1.323       .  A
N353        C357   1.346       .  A
N354        C355   1.343       .  A
C355        C356   1.381       .  A
C355        H358   1.082       .  S
C356        C357   1.383       .  A
C357        H359   1.082       .  S
N360        N361   1.320       .  A
N360        C364   1.343       .  A
N361        C362   1.344       .  A
C362        C363   1.388       .  A
C362        H365   1.078       .  S
C363        C364   1.387       .  A
C363        C585   1.486       .  S
C364        H366   1.082       .  S
N367        N368   1.322       .  A
N367        C371   1.343       .  A
N367       Cu375   2.070       .  S
N368        C369   1.347       .  A
N368       Cu374   2.075       .  S
C369        C370   1.383       .  A
C369        H372   1.082   1_565  S
C370        C371   1.381       .  A
C370        C401   1.467   1_565  S
C371        H373   1.082       .  S
Cu374       N377   2.075       .  S
Cu375       N385   2.070       .  S
Cu376       N378   2.073       .  S
Cu376       N384   2.073       .  S
N377        N378   1.323       .  A
N377        C381   1.346       .  A
N378        C379   1.344       .  A
C379        C380   1.382       .  A
C379        H382   1.082       .  S
C380        C381   1.382       .  A
C381        H383   1.082   1_565  S
N384        N385   1.321       .  A
N384        C388   1.344       .  A
N385        C386   1.344       .  A
C386        C387   1.387       .  A
C386        H389   1.081       .  S
C387        C388   1.387       .  A
C387        C568   1.486       .  S
C388        H390   1.082       .  S
O391        C401   1.276   1_565  A
O391       Cu399   1.999   1_565  S
O392        C402   1.277       .  A
O392       Cu399   2.012       .  S
O393        C403   1.278       .  A
O393       Cu399   2.014       .  S
O394        C404   1.277   1_565  A
O394       Cu399   2.002   1_565  S
O395        C404   1.278       .  A
O395       Cu400   2.017       .  S
O396        C403   1.276       .  A
O396       Cu400   2.002       .  S
O397        C402   1.277       .  A
O397       Cu400   2.006       .  S
O398        C401   1.279       .  A
O398       Cu400   2.019       .  S
Cu399      Cu400   2.377       .  S
C404        C408   1.467   1_545  S
N405        N406   1.323       .  A
N405        C409   1.344       .  A
N405       Cu413   2.071       .  S
N406        C407   1.347       .  A
N406       Cu412   2.076       .  S
C407        C408   1.383       .  A
C407        H410   1.082   1_565  S
C408        C409   1.381       .  A
C409        H411   1.082       .  S
Cu412       N415   2.076       .  S
Cu413       N423   2.071       .  S
Cu414       N416   2.072       .  S
Cu414       N422   2.072       .  S
N415        N416   1.323       .  A
N415        C419   1.346       .  A
N416        C417   1.344       .  A
C417        C418   1.382       .  A
C417        H420   1.082       .  S
C418        C419   1.383       .  A
C419        H421   1.082   1_565  S
N422        N423   1.322       .  A
N422        C426   1.345       .  A
N423        C424   1.345       .  A
C424        C425   1.383       .  A
C424        H427   1.082       .  S
C425        C426   1.384       .  A
C425        C554   1.477       .  S
C426        H428   1.082       .  S
N429        N430   1.322       .  A
N429        C433   1.343       .  A
N429       Cu437   2.070       .  S
N430        C431   1.347       .  A
N430       Cu436   2.075       .  S
C431        C432   1.383       .  A
C431        H434   1.082       .  S
C432        C433   1.381       .  A
C432        C511   1.467       .  S
C433        H435   1.082       .  S
Cu436       N439   2.075       .  S
Cu437       N447   2.070       .  S
Cu438       N440   2.073       .  S
Cu438       N446   2.073       .  S
N439        N440   1.323       .  A
N439        C443   1.346       .  A
N440        C441   1.344       .  A
C441        C442   1.382       .  A
C441        H444   1.082       .  S
C442        C443   1.382       .  A
C442        C528   1.466       .  S
C443        H445   1.082       .  S
N446        N447   1.321       .  A
N446        C450   1.344       .  A
N447        C448   1.344       .  A
C448        C449   1.387       .  A
C448        H451   1.081       .  S
C449        C450   1.387       .  A
C449        C571   1.486       .  S
C450        H452   1.082       .  S
N453        N454   1.323       .  A
N453        C457   1.344       .  A
N453       Cu461   2.074       .  S
N454        C455   1.346       .  A
N454       Cu460   2.073       .  S
C455        C456   1.382       .  A
C455        H458   1.082       .  S
C456        C457   1.382       .  A
C456        C513   1.466       .  S
C457        H459   1.082       .  S
Cu460       N463   2.073       .  S
Cu461       N471   2.074       .  S
Cu462       N464   2.072       .  S
Cu462       N470   2.071       .  S
N463        N464   1.322       .  A
N463        C467   1.346       .  A
N464        C465   1.344       .  A
C465        C466   1.382       .  A
C465        H468   1.082       .  S
C466        C467   1.382       .  A
C466        C526   1.466       .  S
C467        H469   1.082       .  S
N470        N471   1.321       .  A
N470        C474   1.344       .  A
N471        C472   1.345       .  A
C472        C473   1.386       .  A
C472        H475   1.080       .  S
C473        C474   1.384       .  A
C473        C596   1.480       .  S
C474        H476   1.082       .  S
N477        N478   1.323       .  A
N477        C481   1.344       .  A
N477       Cu485   2.072       .  S
N478        C479   1.346       .  A
N478       Cu484   2.076       .  S
C479        C480   1.382       .  A
C479        H482   1.082       .  S
C480        C481   1.382       .  A
C480        C525   1.467       .  S
C481        H483   1.082       .  S
Cu484       N487   2.076       .  S
Cu485       N495   2.072       .  S
Cu486       N488   2.071       .  S
Cu486       N494   2.071       .  S
N487        N488   1.323       .  A
N487        C491   1.347       .  A
N488        C489   1.344       .  A
C489        C490   1.381       .  A
C489        H492   1.082       .  S
C490        C491   1.383       .  A
C490        C514   1.467       .  S
C491        H493   1.082       .  S
N494        N495   1.322       .  A
N494        C498   1.345       .  A
N495        C496   1.345       .  A
C496        C497   1.384       .  A
C496        H499   1.082       .  S
C497        C498   1.383       .  A
C497        C557   1.477       .  S
C498        H500   1.082       .  S
O501        C511   1.278       .  A
O501       Cu509   2.018       .  S
O502      Cu1117   2.005   1_455  S
O503       Cu509   2.003       .  S
O504        C514   1.278       .  A
O504      Cu1117   2.017   1_455  S
O505        C514   1.277       .  A
O505       Cu814   2.002   1_456  S
O506        C513   1.278       .  A
O506       Cu510   2.014       .  S
O507        C512   1.277       .  A
O507      Cu1118   2.012   1_455  S
O508        C511   1.276       .  A
Cu509      O1110   2.005       .  S
Cu509      O1112   2.017       .  S
Cu510       O809   2.002       .  S
Cu510      O1115   2.012       .  S
C512        C532   1.466       .  S
O515        C525   1.277       .  A
O515       Cu523   2.005       .  S
O516        C526   1.278       .  A
O516       Cu523   2.017       .  S
O517        C527   1.278       .  A
O517       Cu523   2.015       .  S
O518        C528   1.277       .  A
O518       Cu523   2.003       .  S
O519        C528   1.278       .  A
O519       Cu524   2.014       .  S
O520        C527   1.277       .  A
O520       Cu524   2.001       .  S
O521        C526   1.276       .  A
O521       Cu524   1.999       .  S
O522        C525   1.278       .  A
O522       Cu524   2.013       .  S
Cu523      Cu524   2.377       .  S
C527        C542   1.466       .  S
N529        N530   1.323       .  A
N529        C533   1.344       .  A
N529       Cu537   2.070       .  S
N530        C531   1.346       .  A
N530       Cu536   2.076       .  S
C531        C532   1.382       .  A
C531        H534   1.082       .  S
C532        C533   1.381       .  A
C533        H535   1.082       .  S
Cu536       N539   2.076       .  S
Cu537       N547   2.070       .  S
Cu538       N540   2.070       .  S
Cu538       N546   2.070       .  S
N539        N540   1.323       .  A
N539        C543   1.346       .  A
N540        C541   1.344       .  A
C541        C542   1.381       .  A
C541        H544   1.082       .  S
C542        C543   1.383       .  A
C543        H545   1.082       .  S
N546        N547   1.320       .  A
N546        C550   1.343       .  A
N547        C548   1.344       .  A
C548        C549   1.388       .  A
C548        H551   1.078       .  S
C549        C550   1.387       .  A
C549        C582   1.486       .  S
C550        H552   1.082       .  S
C553        C554   1.403       .  A
C553        C558   1.401       .  A
C553        H560   1.084       .  S
C554        C555   1.418       .  A
C555        C556   1.401       .  A
C555        N562   1.440       .  S
C556        C557   1.403       .  A
C556        H561   1.084       .  S
C557        C558   1.418       .  A
C558        N559   1.440       .  S
N559        H563   1.046       .  S
N559        H564   1.042       .  S
N562        H565   1.042       .  S
N562        H566   1.046       .  S
C567        C568   1.404       .  A
C567        C572   1.405       .  A
C567        H574   1.083       .  S
C568        C569   1.414       .  A
C569        C570   1.405       .  A
C569        N576   1.437       .  S
C570        C571   1.404       .  A
C570        H575   1.083       .  S
C571        C572   1.414       .  A
C572        N573   1.437       .  S
N573        H577   1.046       .  S
N573        H578   1.046       .  S
N576        H579   1.046       .  S
N576        H580   1.046       .  S
C581        C582   1.405       .  A
C581        C586   1.398       .  A
C581        H588   1.084       .  S
C582        C583   1.417       .  A
C583        C584   1.399       .  A
C583        N590   1.432       .  S
C584        C585   1.405       .  A
C584        H589   1.084       .  S
C585        C586   1.417       .  A
C586        N587   1.432       .  S
N587        H591   1.043       .  S
N587        H592   1.045       .  S
N590        H593   1.045       .  S
N590        H594   1.043       .  S
C595        C596   1.403       .  A
C595        C600   1.399       .  A
C595        H602   1.084       .  S
C596        C597   1.415       .  A
C597        C598   1.399       .  A
C597        N604   1.432       .  S
C598        C599   1.403       .  A
C598        H603   1.084       .  S
C599        C600   1.415       .  A
C600        N601   1.432       .  S
N601        H605   1.043       .  S
N601        H606   1.046       .  S
N604        H607   1.046       .  S
N604        H608   1.043       .  S
N609        N610   1.322       .  A
N609        C613   1.344       .  A
N609       Cu617   2.072       .  S
N610        C611   1.346       .  A
N610       Cu616   2.073       .  S
C611        C612   1.382       .  A
C611        H614   1.082       .  S
C612        C613   1.382       .  A
C612        C643   1.467       .  S
C613        H615   1.082       .  S
Cu616       N619   2.073       .  S
Cu617       N627   2.072       .  S
Cu618       N620   2.073       .  S
Cu618       N626   2.073       .  S
N619        N620   1.323       .  A
N619        C623   1.346       .  A
N620        C621   1.344       .  A
C621        C622   1.382       .  A
C621        H624   1.082       .  S
C622        C623   1.382       .  A
C622        C707   1.466       .  S
C623        H625   1.082       .  S
N626        N627   1.321       .  A
N626        C630   1.345       .  A
N627        C628   1.344       .  A
C628        C629   1.384       .  A
C628        H631   1.082       .  S
C629        C630   1.385       .  A
C629        C903   1.480       .  S
C630        H632   1.080       .  S
O633        C643   1.276       .  A
O633       Cu945   2.000   1_554  S
O634        C644   1.278       .  A
O635        C645   1.278       .  A
O635       Cu641   2.014       .  S
O636        C646   1.276       .  A
O637        C646   1.278       .  A
O638        C645   1.277   1_565  A
O638       Cu946   2.003   1_565  S
O639        C644   1.277   1_565  A
O640        C643   1.278       .  A
O640       Cu642   2.018       .  S
Cu641       O937   2.000       .  S
Cu641      Cu946   2.377       .  S
Cu642       O942   2.003   1_544  S
Cu642      Cu945   2.377   1_554  S
C644        C722   1.467   1_545  S
C645        C684   1.466   1_545  S
C646        C660   1.466       .  S
N647        N648   1.323       .  A
N647        C651   1.344       .  A
N647       Cu655   2.071       .  S
N648        C649   1.346       .  A
N648       Cu654   2.076       .  S
C649        C650   1.382       .  A
C649        H652   1.082       .  S
C650        C651   1.381       .  A
C650        C706   1.466       .  S
C651        H653   1.082       .  S
Cu654       N657   2.076       .  S
Cu655       N665   2.070       .  S
Cu656       N658   2.069       .  S
Cu656       N664   2.069       .  S
N657        N658   1.323       .  A
N657        C661   1.346       .  A
N658        C659   1.343       .  A
C659        C660   1.381       .  A
C659        H662   1.082       .  S
C660        C661   1.383       .  A
C661        H663   1.082       .  S
N664        N665   1.320       .  A
N664        C668   1.343       .  A
N665        C666   1.344       .  A
C666        C667   1.388       .  A
C666        H669   1.078       .  S
C667        C668   1.387       .  A
C667        C889   1.486       .  S
C668        H670   1.082       .  S
N671        N672   1.322       .  A
N671        C675   1.343       .  A
N671       Cu679   2.070       .  S
N672        C673   1.347       .  A
N672       Cu678   2.075       .  S
C673        C674   1.383       .  A
C673        H676   1.082   1_565  S
C674        C675   1.381       .  A
C674        C705   1.467   1_565  S
C675        H677   1.082       .  S
Cu678       N681   2.075       .  S
Cu679       N689   2.070       .  S
Cu680       N682   2.073       .  S
Cu680       N688   2.073       .  S
N681        N682   1.323       .  A
N681        C685   1.346       .  A
N682        C683   1.344       .  A
C683        C684   1.382       .  A
C683        H686   1.082       .  S
C684        C685   1.382       .  A
C685        H687   1.082   1_565  S
N688        N689   1.321       .  A
N688        C692   1.344       .  A
N689        C690   1.344       .  A
C690        C691   1.387       .  A
C690        H693   1.081       .  S
C691        C692   1.387       .  A
C691        C872   1.486       .  S
C692        H694   1.082       .  S
O695        C705   1.276   1_565  A
O695       Cu703   1.999   1_565  S
O696        C706   1.277       .  A
O696       Cu703   2.012       .  S
O697        C707   1.278       .  A
O697       Cu703   2.014       .  S
O698        C708   1.277   1_565  A
O698       Cu703   2.002   1_565  S
O699        C708   1.278       .  A
O699       Cu704   2.017       .  S
O700        C707   1.276       .  A
O700       Cu704   2.002       .  S
O701        C706   1.277       .  A
O701       Cu704   2.006       .  S
O702        C705   1.279       .  A
O702       Cu704   2.019       .  S
Cu703      Cu704   2.377       .  S
C708        C712   1.467   1_545  S
N709        N710   1.323       .  A
N709        C713   1.344       .  A
N709       Cu717   2.071       .  S
N710        C711   1.347       .  A
N710       Cu716   2.076       .  S
C711        C712   1.383       .  A
C711        H714   1.082   1_565  S
C712        C713   1.381       .  A
C713        H715   1.082       .  S
Cu716       N719   2.076       .  S
Cu717       N727   2.071       .  S
Cu718       N720   2.072       .  S
Cu718       N726   2.072       .  S
N719        N720   1.323       .  A
N719        C723   1.346       .  A
N720        C721   1.344       .  A
C721        C722   1.382       .  A
C721        H724   1.082       .  S
C722        C723   1.383       .  A
C723        H725   1.082   1_565  S
N726        N727   1.322       .  A
N726        C730   1.345       .  A
N727        C728   1.345       .  A
C728        C729   1.383       .  A
C728        H731   1.082       .  S
C729        C730   1.384       .  A
C729        C858   1.477       .  S
C730        H732   1.082       .  S
N733        N734   1.322       .  A
N733        C737   1.343       .  A
N733       Cu741   2.070       .  S
N734        C735   1.347       .  A
N734       Cu740   2.075       .  S
C735        C736   1.383       .  A
C735        H738   1.082       .  S
C736        C737   1.381       .  A
C736        C815   1.467       .  S
C737        H739   1.082       .  S
Cu740       N743   2.075       .  S
Cu741       N751   2.070       .  S
Cu742       N744   2.073       .  S
Cu742       N750   2.073       .  S
N743        N744   1.323       .  A
N743        C747   1.346       .  A
N744        C745   1.344       .  A
C745        C746   1.382       .  A
C745        H748   1.082       .  S
C746        C747   1.382       .  A
C746        C832   1.466       .  S
C747        H749   1.082       .  S
N750        N751   1.321       .  A
N750        C754   1.344       .  A
N751        C752   1.344       .  A
C752        C753   1.387       .  A
C752        H755   1.081       .  S
C753        C754   1.387       .  A
C753        C875   1.486       .  S
C754        H756   1.082       .  S
N757        N758   1.323       .  A
N757        C761   1.344       .  A
N757       Cu765   2.074       .  S
N758        C759   1.346       .  A
N758       Cu764   2.073       .  S
C759        C760   1.382       .  A
C759        H762   1.082       .  S
C760        C761   1.382       .  A
C760        C817   1.466       .  S
C761        H763   1.082       .  S
Cu764       N767   2.073       .  S
Cu765       N775   2.074       .  S
Cu766       N768   2.072       .  S
Cu766       N774   2.071       .  S
N767        N768   1.322       .  A
N767        C771   1.346       .  A
N768        C769   1.344       .  A
C769        C770   1.382       .  A
C769        H772   1.082       .  S
C770        C771   1.382       .  A
C770        C830   1.466       .  S
C771        H773   1.082       .  S
N774        N775   1.321       .  A
N774        C778   1.344       .  A
N775        C776   1.345       .  A
C776        C777   1.386       .  A
C776        H779   1.080       .  S
C777        C778   1.384       .  A
C777        C900   1.480       .  S
C778        H780   1.082       .  S
N781        N782   1.323       .  A
N781        C785   1.344       .  A
N781       Cu789   2.072       .  S
N782        C783   1.346       .  A
N782       Cu788   2.076       .  S
C783        C784   1.382       .  A
C783        H786   1.082       .  S
C784        C785   1.382       .  A
C784        C829   1.467       .  S
C785        H787   1.082       .  S
Cu788       N791   2.076       .  S
Cu789       N799   2.072       .  S
Cu790       N792   2.071       .  S
Cu790       N798   2.071       .  S
N791        N792   1.323       .  A
N791        C795   1.347       .  A
N792        C793   1.344       .  A
C793        C794   1.381       .  A
C793        H796   1.082       .  S
C794        C795   1.383       .  A
C794        C818   1.467       .  S
C795        H797   1.082       .  S
N798        N799   1.322       .  A
N798        C802   1.345       .  A
N799        C800   1.345       .  A
C800        C801   1.384       .  A
C800        H803   1.082       .  S
C801        C802   1.383       .  A
C801        C861   1.477       .  S
C802        H804   1.082       .  S
O805        C815   1.278       .  A
O805       Cu813   2.018       .  S
O806       C1120   1.277       .  A
O807       C1121   1.277       .  A
O807       Cu813   2.003       .  S
O808        C818   1.278       .  A
O809        C818   1.277       .  A
O810        C817   1.278       .  A
O810       Cu814   2.014       .  S
O811        C816   1.277       .  A
O812        C815   1.276       .  A
O812      Cu1118   1.999       .  S
Cu813     Cu1118   2.377       .  S
Cu814      O1116   1.999   1_554  S
Cu814     Cu1117   2.377   1_554  S
C816        C836   1.466       .  S
C816       O1110   1.277   1_554  A
C817       O1111   1.277   1_554  A
O819        C829   1.277       .  A
O819       Cu827   2.005       .  S
O820        C830   1.278       .  A
O820       Cu827   2.017       .  S
O821        C831   1.278       .  A
O821       Cu827   2.015       .  S
O822        C832   1.277       .  A
O822       Cu827   2.003       .  S
O823        C832   1.278       .  A
O823       Cu828   2.014       .  S
O824        C831   1.277       .  A
O824       Cu828   2.001       .  S
O825        C830   1.276       .  A
O825       Cu828   1.999       .  S
O826        C829   1.278       .  A
O826       Cu828   2.013       .  S
Cu827      Cu828   2.377       .  S
C831        C846   1.466       .  S
N833        N834   1.323       .  A
N833        C837   1.344       .  A
N833       Cu841   2.070       .  S
N834        C835   1.346       .  A
N834       Cu840   2.076       .  S
C835        C836   1.382       .  A
C835        H838   1.082       .  S
C836        C837   1.381       .  A
C837        H839   1.082       .  S
Cu840       N843   2.076       .  S
Cu841       N851   2.070       .  S
Cu842       N844   2.070       .  S
Cu842       N850   2.070       .  S
N843        N844   1.323       .  A
N843        C847   1.346       .  A
N844        C845   1.344       .  A
C845        C846   1.381       .  A
C845        H848   1.082       .  S
C846        C847   1.383       .  A
C847        H849   1.082       .  S
N850        N851   1.320       .  A
N850        C854   1.343       .  A
N851        C852   1.344       .  A
C852        C853   1.388       .  A
C852        H855   1.078       .  S
C853        C854   1.387       .  A
C853        C886   1.486       .  S
C854        H856   1.082       .  S
C857        C858   1.403       .  A
C857        C862   1.401       .  A
C857        H864   1.084       .  S
C858        C859   1.418       .  A
C859        C860   1.401       .  A
C859        N866   1.440       .  S
C860        C861   1.403       .  A
C860        H865   1.084       .  S
C861        C862   1.418       .  A
C862        N863   1.440       .  S
N863        H867   1.046       .  S
N863        H868   1.042       .  S
N866        H869   1.042       .  S
N866        H870   1.046       .  S
C871        C872   1.404       .  A
C871        C876   1.405       .  A
C871        H878   1.083       .  S
C872        C873   1.414       .  A
C873        C874   1.405       .  A
C873        N880   1.437       .  S
C874        C875   1.404       .  A
C874        H879   1.083       .  S
C875        C876   1.414       .  A
C876        N877   1.437       .  S
N877        H881   1.046       .  S
N877        H882   1.046       .  S
N880        H883   1.046       .  S
N880        H884   1.046       .  S
C885        C886   1.405       .  A
C885        C890   1.398       .  A
C885        H892   1.084       .  S
C886        C887   1.417       .  A
C887        C888   1.399       .  A
C887        N894   1.432       .  S
C888        C889   1.405       .  A
C888        H893   1.084       .  S
C889        C890   1.417       .  A
C890        N891   1.432       .  S
N891        H895   1.043       .  S
N891        H896   1.045       .  S
N894        H897   1.045       .  S
N894        H898   1.043       .  S
C899        C900   1.403       .  A
C899        C904   1.399       .  A
C899        H906   1.084       .  S
C900        C901   1.415       .  A
C901        C902   1.399       .  A
C901        N908   1.432       .  S
C902        C903   1.403       .  A
C902        H907   1.084       .  S
C903        C904   1.415       .  A
C904        N905   1.432       .  S
N905        H909   1.043       .  S
N905        H910   1.046       .  S
N908        H911   1.046       .  S
N908        H912   1.043       .  S
N913        N914   1.322       .  A
N913        C917   1.344       .  A
N913       Cu921   2.072       .  S
N914        C915   1.346       .  A
N914       Cu920   2.073       .  S
C915        C916   1.382       .  A
C915        H918   1.082       .  S
C916        C917   1.382       .  A
C916        C947   1.467       .  S
C917        H919   1.082       .  S
Cu920       N923   2.073       .  S
Cu921       N931   2.072       .  S
Cu922       N924   2.073       .  S
Cu922       N930   2.073       .  S
N923        N924   1.323       .  A
N923        C927   1.346       .  A
N924        C925   1.344       .  A
C925        C926   1.382       .  A
C925        H928   1.082       .  S
C926        C927   1.382       .  A
C926       C1011   1.466       .  S
C927        H929   1.082       .  S
N930        N931   1.321       .  A
N930        C934   1.345       .  A
N931        C932   1.344       .  A
C932        C933   1.384       .  A
C932        H935   1.082       .  S
C933        C934   1.385       .  A
C933       C1207   1.480       .  S
C934        H936   1.080       .  S
O937        C947   1.276       .  A
O938        C948   1.278       .  A
O939        C949   1.278       .  A
O939       Cu945   2.014       .  S
O940        C950   1.276       .  A
O941        C950   1.278       .  A
O942        C949   1.277   1_565  A
O943        C948   1.277   1_565  A
O944        C947   1.278       .  A
O944       Cu946   2.018       .  S
C948       C1026   1.467   1_545  S
C949        C988   1.466   1_545  S
C950        C964   1.466       .  S
N951        N952   1.323       .  A
N951        C955   1.344       .  A
N951       Cu959   2.071       .  S
N952        C953   1.346       .  A
N952       Cu958   2.076       .  S
C953        C954   1.382       .  A
C953        H956   1.082       .  S
C954        C955   1.381       .  A
C954       C1010   1.466       .  S
C955        H957   1.082       .  S
Cu958       N961   2.076       .  S
Cu959       N969   2.070       .  S
Cu960       N962   2.069       .  S
Cu960       N968   2.069       .  S
N961        N962   1.323       .  A
N961        C965   1.346       .  A
N962        C963   1.343       .  A
C963        C964   1.381       .  A
C963        H966   1.082       .  S
C964        C965   1.383       .  A
C965        H967   1.082       .  S
N968        N969   1.320       .  A
N968        C972   1.343       .  A
N969        C970   1.344       .  A
C970        C971   1.388       .  A
C970        H973   1.078       .  S
C971        C972   1.387       .  A
C971       C1193   1.486       .  S
C972        H974   1.082       .  S
N975        N976   1.322       .  A
N975        C979   1.343       .  A
N975       Cu983   2.070       .  S
N976        C977   1.347       .  A
N976       Cu982   2.075       .  S
C977        C978   1.383       .  A
C977        H980   1.082   1_565  S
C978        C979   1.381       .  A
C978       C1009   1.467   1_565  S
C979        H981   1.082       .  S
Cu982       N985   2.075       .  S
Cu983       N993   2.070       .  S
Cu984       N986   2.073       .  S
Cu984       N992   2.073       .  S
N985        N986   1.323       .  A
N985        C989   1.346       .  A
N986        C987   1.344       .  A
C987        C988   1.382       .  A
C987        H990   1.082       .  S
C988        C989   1.382       .  A
C989        H991   1.082   1_565  S
N992        N993   1.321       .  A
N992        C996   1.344       .  A
N993        C994   1.344       .  A
C994        C995   1.387       .  A
C994        H997   1.081       .  S
C995        C996   1.387       .  A
C995       C1176   1.486       .  S
C996        H998   1.082       .  S
O999       C1009   1.276   1_565  A
O999      Cu1007   1.999   1_565  S
O1000      C1010   1.277       .  A
O1000     Cu1007   2.012       .  S
O1001      C1011   1.278       .  A
O1001     Cu1007   2.014       .  S
O1002      C1012   1.277   1_565  A
O1002     Cu1007   2.002   1_565  S
O1003      C1012   1.278       .  A
O1003     Cu1008   2.017       .  S
O1004      C1011   1.276       .  A
O1004     Cu1008   2.002       .  S
O1005      C1010   1.277       .  A
O1005     Cu1008   2.006       .  S
O1006      C1009   1.279       .  A
O1006     Cu1008   2.019       .  S
Cu1007    Cu1008   2.377       .  S
C1012      C1016   1.467   1_545  S
N1013      N1014   1.323       .  A
N1013      C1017   1.344       .  A
N1013     Cu1021   2.071       .  S
N1014      C1015   1.347       .  A
N1014     Cu1020   2.076       .  S
C1015      C1016   1.383       .  A
C1015      H1018   1.082   1_565  S
C1016      C1017   1.381       .  A
C1017      H1019   1.082       .  S
Cu1020     N1023   2.076       .  S
Cu1021     N1031   2.071       .  S
Cu1022     N1024   2.072       .  S
Cu1022     N1030   2.072       .  S
N1023      N1024   1.323       .  A
N1023      C1027   1.346       .  A
N1024      C1025   1.344       .  A
C1025      C1026   1.382       .  A
C1025      H1028   1.082       .  S
C1026      C1027   1.383       .  A
C1027      H1029   1.082   1_565  S
N1030      N1031   1.322       .  A
N1030      C1034   1.345       .  A
N1031      C1032   1.345       .  A
C1032      C1033   1.383       .  A
C1032      H1035   1.082       .  S
C1033      C1034   1.384       .  A
C1033      C1162   1.477       .  S
C1034      H1036   1.082       .  S
N1037      N1038   1.322       .  A
N1037      C1041   1.343       .  A
N1037     Cu1045   2.070       .  S
N1038      C1039   1.347       .  A
N1038     Cu1044   2.075       .  S
C1039      C1040   1.383       .  A
C1039      H1042   1.082       .  S
C1040      C1041   1.381       .  A
C1040      C1119   1.467       .  S
C1041      H1043   1.082       .  S
Cu1044     N1047   2.075       .  S
Cu1045     N1055   2.070       .  S
Cu1046     N1048   2.073       .  S
Cu1046     N1054   2.073       .  S
N1047      N1048   1.323       .  A
N1047      C1051   1.346       .  A
N1048      C1049   1.344       .  A
C1049      C1050   1.382       .  A
C1049      H1052   1.082       .  S
C1050      C1051   1.382       .  A
C1050      C1136   1.466       .  S
C1051      H1053   1.082       .  S
N1054      N1055   1.321       .  A
N1054      C1058   1.344       .  A
N1055      C1056   1.344       .  A
C1056      C1057   1.387       .  A
C1056      H1059   1.081       .  S
C1057      C1058   1.387       .  A
C1057      C1179   1.486       .  S
C1058      H1060   1.082       .  S
N1061      N1062   1.323       .  A
N1061      C1065   1.344       .  A
N1061     Cu1069   2.074       .  S
N1062      C1063   1.346       .  A
N1062     Cu1068   2.073       .  S
C1063      C1064   1.382       .  A
C1063      H1066   1.082       .  S
C1064      C1065   1.382       .  A
C1064      C1121   1.466       .  S
C1065      H1067   1.082       .  S
Cu1068     N1071   2.073       .  S
Cu1069     N1079   2.074       .  S
Cu1070     N1072   2.072       .  S
Cu1070     N1078   2.071       .  S
N1071      N1072   1.322       .  A
N1071      C1075   1.346       .  A
N1072      C1073   1.344       .  A
C1073      C1074   1.382       .  A
C1073      H1076   1.082       .  S
C1074      C1075   1.382       .  A
C1074      C1134   1.466       .  S
C1075      H1077   1.082       .  S
N1078      N1079   1.321       .  A
N1078      C1082   1.344       .  A
N1079      C1080   1.345       .  A
C1080      C1081   1.386       .  A
C1080      H1083   1.080       .  S
C1081      C1082   1.384       .  A
C1081      C1204   1.480       .  S
C1082      H1084   1.082       .  S
N1085      N1086   1.323       .  A
N1085      C1089   1.344       .  A
N1085     Cu1093   2.072       .  S
N1086      C1087   1.346       .  A
N1086     Cu1092   2.076       .  S
C1087      C1088   1.382       .  A
C1087      H1090   1.082       .  S
C1088      C1089   1.382       .  A
C1088      C1133   1.467       .  S
C1089      H1091   1.082       .  S
Cu1092     N1095   2.076       .  S
Cu1093     N1103   2.072       .  S
Cu1094     N1096   2.071       .  S
Cu1094     N1102   2.071       .  S
N1095      N1096   1.323       .  A
N1095      C1099   1.347       .  A
N1096      C1097   1.344       .  A
C1097      C1098   1.381       .  A
C1097      H1100   1.082       .  S
C1098      C1099   1.383       .  A
C1098      C1122   1.467       .  S
C1099      H1101   1.082       .  S
N1102      N1103   1.322       .  A
N1102      C1106   1.345       .  A
N1103      C1104   1.345       .  A
C1104      C1105   1.384       .  A
C1104      H1107   1.082       .  S
C1105      C1106   1.383       .  A
C1105      C1165   1.477       .  S
C1106      H1108   1.082       .  S
O1109      C1119   1.278       .  A
O1109     Cu1117   2.018       .  S
O1111     Cu1117   2.003       .  S
O1112      C1122   1.278       .  A
O1113      C1122   1.277       .  A
O1114      C1121   1.278       .  A
O1114     Cu1118   2.014       .  S
O1115      C1120   1.277       .  A
O1116      C1119   1.276       .  A
C1120      C1140   1.466       .  S
O1123      C1133   1.277       .  A
O1123     Cu1131   2.005       .  S
O1124      C1134   1.278       .  A
O1124     Cu1131   2.017       .  S
O1125      C1135   1.278       .  A
O1125     Cu1131   2.015       .  S
O1126      C1136   1.277       .  A
O1126     Cu1131   2.003       .  S
O1127      C1136   1.278       .  A
O1127     Cu1132   2.014       .  S
O1128      C1135   1.277       .  A
O1128     Cu1132   2.001       .  S
O1129      C1134   1.276       .  A
O1129     Cu1132   1.999       .  S
O1130      C1133   1.278       .  A
O1130     Cu1132   2.013       .  S
Cu1131    Cu1132   2.377       .  S
C1135      C1150   1.466       .  S
N1137      N1138   1.323       .  A
N1137      C1141   1.344       .  A
N1137     Cu1145   2.070       .  S
N1138      C1139   1.346       .  A
N1138     Cu1144   2.076       .  S
C1139      C1140   1.382       .  A
C1139      H1142   1.082       .  S
C1140      C1141   1.381       .  A
C1141      H1143   1.082       .  S
Cu1144     N1147   2.076       .  S
Cu1145     N1155   2.070       .  S
Cu1146     N1148   2.070       .  S
Cu1146     N1154   2.070       .  S
N1147      N1148   1.323       .  A
N1147      C1151   1.346       .  A
N1148      C1149   1.344       .  A
C1149      C1150   1.381       .  A
C1149      H1152   1.082       .  S
C1150      C1151   1.383       .  A
C1151      H1153   1.082       .  S
N1154      N1155   1.320       .  A
N1154      C1158   1.343       .  A
N1155      C1156   1.344       .  A
C1156      C1157   1.388       .  A
C1156      H1159   1.078       .  S
C1157      C1158   1.387       .  A
C1157      C1190   1.486       .  S
C1158      H1160   1.082       .  S
C1161      C1162   1.403       .  A
C1161      C1166   1.401       .  A
C1161      H1168   1.084       .  S
C1162      C1163   1.418       .  A
C1163      C1164   1.401       .  A
C1163      N1170   1.440       .  S
C1164      C1165   1.403       .  A
C1164      H1169   1.084       .  S
C1165      C1166   1.418       .  A
C1166      N1167   1.440       .  S
N1167      H1171   1.046       .  S
N1167      H1172   1.042       .  S
N1170      H1173   1.042       .  S
N1170      H1174   1.046       .  S
C1175      C1176   1.404       .  A
C1175      C1180   1.405       .  A
C1175      H1182   1.083       .  S
C1176      C1177   1.414       .  A
C1177      C1178   1.405       .  A
C1177      N1184   1.437       .  S
C1178      C1179   1.404       .  A
C1178      H1183   1.083       .  S
C1179      C1180   1.414       .  A
C1180      N1181   1.437       .  S
N1181      H1185   1.046       .  S
N1181      H1186   1.046       .  S
N1184      H1187   1.046       .  S
N1184      H1188   1.046       .  S
C1189      C1190   1.405       .  A
C1189      C1194   1.398       .  A
C1189      H1196   1.084       .  S
C1190      C1191   1.417       .  A
C1191      C1192   1.399       .  A
C1191      N1198   1.432       .  S
C1192      C1193   1.405       .  A
C1192      H1197   1.084       .  S
C1193      C1194   1.417       .  A
C1194      N1195   1.432       .  S
N1195      H1199   1.043       .  S
N1195      H1200   1.045       .  S
N1198      H1201   1.045       .  S
N1198      H1202   1.043       .  S
C1203      C1204   1.403       .  A
C1203      C1208   1.399       .  A
C1203      H1210   1.084       .  S
C1204      C1205   1.415       .  A
C1205      C1206   1.399       .  A
C1205      N1212   1.432       .  S
C1206      C1207   1.403       .  A
C1206      H1211   1.084       .  S
C1207      C1208   1.415       .  A
C1208      N1209   1.432       .  S
N1209      H1213   1.043       .  S
N1209      H1214   1.046       .  S
N1212      H1215   1.046       .  S
N1212      H1216   1.043       .  S
