geometry optimzed in LAMMPS
_audit_creation_date              2020-11-30 
_audit_creation_method            'lammps2cif' 
_symmetry_space_group_name_H-M    'P1' 
_symmetry_Int_Tables_number       1 
_symmetry_cell_setting            triclinic 
loop_ 
_symmetry_equiv_pos_as_xyz 
  x,y,z 
_cell_length_a                    37.611538760879945 
_cell_length_b                    48.159989515476106 
_cell_length_c                    27.59706979976897 
_cell_angle_alpha                 90.02347916549805 
_cell_angle_beta                  89.95188535409856 
_cell_angle_gamma                 89.97796185278513 
loop_ 
_atom_site_label 
_atom_site_type_symbol 
_atom_site_fract_x 
_atom_site_fract_y 
_atom_site_fract_z 
_atom_site_charge 
N1          N  0.70628116  0.07566360  0.29484631    -0.27160
N2          N  0.69327817  0.09944856  0.31100580    -0.35010
C3          C  0.66514918  0.09417713  0.33965993     0.01180
C4          C  0.66009282  0.06576170  0.34112273     0.07210
C5          C  0.68642565  0.05464290  0.31209571    -0.05890
H6          H  0.64927428  0.10986822  0.35754906     0.07880
H7          H  0.69114786  0.03290062  0.30466841     0.09080
Cu8        Cu  0.71341008  0.13802843  0.29184740     0.44170
Cu9        Cu  0.75092704  0.07282943  0.25123701     0.41990
Cu10       Cu  0.78754120  0.13786471  0.20816766     0.43880
N11         N  0.73701552  0.17384477  0.26514842    -0.34540
N12         N  0.76419712  0.17377971  0.23472904    -0.28800
C13         C  0.77306493  0.20015782  0.22421409    -0.04900
C14         C  0.75025017  0.21763865  0.24902938     0.07320
C15         C  0.72774546  0.20027241  0.27461126     0.01120
H16         H  0.79430998  0.20611243  0.19988844     0.08770
H17         H  0.70608805  0.20634397  0.29818294     0.07850
N18         N  0.80719132  0.09920179  0.18878241    -0.35990
N19         N  0.79465118  0.07556804  0.20591569    -0.28170
C20         C  0.81402238  0.05446672  0.18805151    -0.03410
C21         C  0.83970895  0.06517556  0.15705362     0.05200
C22         C  0.83451855  0.09372726  0.15889198     0.03290
H23         H  0.80986390  0.03307296  0.19812378     0.08400
H24         H  0.84936374  0.10951706  0.13975761     0.07230
O25         O  0.96190187  0.02109708  0.00771888    -0.72810
O26         O  0.03448717  0.98106051  0.92729998    -0.73790
O27         O  0.95870392  0.98236703  0.93045523    -0.62410
O28         O  0.03701778  0.01965995  0.00486858    -0.70820
O29         O  0.03583663  0.98569816  0.05874423    -0.70370
O30         O  0.96087143  0.94664685  0.98128980    -0.61630
O31         O  0.03613339  0.94695197  0.98148619    -0.74140
O32         O  0.96023354  0.98542728  0.05862677    -0.72910
Cu33       Cu  0.99801862  0.00224853  0.96568337     1.04560
Cu34       Cu  0.99825756  0.96497867  0.02189999     1.04330
C35         C  0.94946654  0.00947289  0.04568815     0.93390
C36         C  0.04705027  0.95794023  0.94211854     0.92530
C37         C  0.94765706  0.95852002  0.94407031     0.84670
C38         C  0.04871333  0.00872816  0.04395969     0.90940
N39         N  0.20540397  0.07607782  0.19819896    -0.27160
N40         N  0.19119358  0.10014617  0.18578524    -0.35010
C41         C  0.16297320  0.09557992  0.15711855     0.01180
C42         C  0.15932296  0.06722967  0.15034430     0.07210
C43         C  0.18658312  0.05552294  0.17738777    -0.05890
H44         H  0.14603000  0.11185550  0.14319825     0.07880
H45         H  0.19247765  0.03366385  0.18141914     0.09080
Cu46       Cu  0.21050816  0.13849275  0.20680007     0.44170
Cu47       Cu  0.24961571  0.07242604  0.24300597     0.41990
Cu48       Cu  0.29094564  0.13829084  0.27525929     0.43880
N49         N  0.23536402  0.17447185  0.22961692    -0.34540
N50         N  0.26518062  0.17439310  0.25486748    -0.28800
C51         C  0.27459178  0.20073466  0.26460547    -0.04900
C52         C  0.24947796  0.21820043  0.24433416     0.07320
C53         C  0.22499574  0.20086861  0.22239071     0.01120
H54         H  0.29793139  0.20667137  0.28502663     0.08770
H55         H  0.20133165  0.20693169  0.20277193     0.07850
N56         N  0.31005133  0.09989155  0.29646172    -0.35990
N57         N  0.29463935  0.07594487  0.28631085    -0.28170
C58         C  0.31307943  0.05541841  0.30782181    -0.03410
C59         C  0.34149832  0.06698366  0.33286846     0.05200
C60         C  0.33881691  0.09525201  0.32405553     0.03290
H61         H  0.30604758  0.03368723  0.30569814     0.08400
H62         H  0.35662078  0.11146380  0.33589202     0.07230
N63         N  0.79123979  0.89113512  0.79120357    -0.27160
N64         N  0.80320172  0.86723147  0.80807403    -0.35010
C65         C  0.83144840  0.87194513  0.83659807     0.01180
C66         C  0.83823997  0.90022193  0.83728897     0.07210
C67         C  0.81184143  0.91175213  0.80844674    -0.05890
H68         H  0.84556800  0.85580968  0.85582406     0.07880
H69         H  0.80814226  0.93349467  0.80005710     0.09080
Cu70       Cu  0.78212153  0.82890910  0.79039366     0.44170
Cu71       Cu  0.74741005  0.89411494  0.74559483     0.41990
Cu72       Cu  0.70631866  0.82798474  0.71184873     0.43880
N73         N  0.75918352  0.79265938  0.76530221    -0.34540
N74         N  0.73124722  0.79221887  0.73631518    -0.28800
C75         C  0.72285296  0.76566137  0.72645279    -0.04900
C76         C  0.74672488  0.74864667  0.75042923     0.07320
C77         C  0.76939294  0.76645222  0.77465501     0.01120
H78         H  0.70095648  0.75926231  0.70363247     0.08770
H79         H  0.79160788  0.76083520  0.79754459     0.07850
N80         N  0.68713732  0.86658825  0.69111535    -0.35990
N81         N  0.70230113  0.89052389  0.70248598    -0.28170
C82         C  0.68354825  0.91133208  0.68230711    -0.03410
C83         C  0.65524955  0.89987582  0.65749349     0.05200
C84         C  0.65823974  0.87155134  0.66377359     0.03290
H85         H  0.68992560  0.93313756  0.68568039     0.08400
H86         H  0.64089647  0.85570473  0.64922441     0.07230
O87         O  0.53732224  0.94544037  0.50602990    -0.72810
O88         O  0.46149441  0.98367260  0.42859978    -0.73790
O89         O  0.53684339  0.98423993  0.42899173    -0.62410
O90         O  0.46146962  0.94495622  0.50593507    -0.70820
O91         O  0.46018332  0.97979948  0.55817274    -0.70370
O92         O  0.53710400  0.01815007  0.48331753    -0.61630
O93         O  0.46161620  0.01841947  0.48101820    -0.74140
O94         O  0.53541045  0.97929793  0.56067190    -0.72910
Cu95       Cu  0.49930601  0.96334209  0.46558252     1.04560
Cu96       Cu  0.49858096  0.00011794  0.52261242     1.04330
C97         C  0.54823132  0.95632817  0.54551965     0.93390
C98         C  0.44949483  0.00718817  0.44241569     0.92530
C99         C  0.54896364  0.00745338  0.44410596     0.84670
C100        C  0.44843477  0.95631592  0.54392456     0.90940
N101        N  0.20081874  0.89090418  0.78512414    -0.27160
N102        N  0.18581413  0.86710080  0.79760200    -0.35010
C103        C  0.15702987  0.87234919  0.82501174     0.01180
C104        C  0.15388440  0.90076384  0.83039189     0.07210
C105        C  0.18220531  0.91192342  0.80500662    -0.05890
H106        H  0.13992307  0.85660392  0.84043598     0.07880
H107        H  0.18847495  0.93369382  0.80066019     0.09080
Cu108      Cu  0.20524114  0.82822428  0.77895352     0.44170
Cu109      Cu  0.24529078  0.89380486  0.74048893     0.41990
Cu110      Cu  0.28602257  0.82768009  0.71060832     0.43880
N111        N  0.23079293  0.79195927  0.75816278    -0.34540
N112        N  0.26061211  0.79186580  0.73283382    -0.28800
C113        C  0.27063812  0.76547940  0.72471512    -0.04900
C114        C  0.24598576  0.74811351  0.74618303     0.07320
C115        C  0.22107850  0.76557316  0.76710921     0.01120
H116        H  0.29418826  0.75944681  0.70476045     0.08770
H117        H  0.19761712  0.75959176  0.78728008     0.07850
N118        N  0.30551056  0.86559240  0.68788220    -0.35990
N119        N  0.29019026  0.88970988  0.69695051    -0.28170
C120        C  0.30892274  0.90986164  0.67483823    -0.03410
C121        C  0.33757274  0.89787455  0.65067601     0.05200
C122        C  0.33457233  0.86973448  0.66059794     0.03290
H123        H  0.30203188  0.93164288  0.67624406     0.08400
H124        H  0.35243681  0.85326047  0.65007773     0.07230
N125        N  0.70562223  0.57567475  0.70366232    -0.27160
N126        N  0.68976747  0.59962258  0.69536409    -0.35010
C127        C  0.65993116  0.59520920  0.67000173     0.01180
C128        C  0.65674988  0.56698000  0.66031835     0.07210
C129        C  0.68642935  0.55533614  0.68285193    -0.05890
H130        H  0.64195190  0.61176245  0.66083175     0.07880
H131        H  0.69384170  0.53367264  0.68408930     0.09080
Cu132      Cu  0.70927219  0.63780308  0.71658179     0.44170
Cu133      Cu  0.75155275  0.57231674  0.74515215     0.41990
Cu134      Cu  0.78577912  0.63858876  0.79214686     0.43880
N135        N  0.73358244  0.67411834  0.73850945    -0.34540
N136        N  0.76193901  0.67453203  0.76668484    -0.28800
C137        C  0.77122963  0.70107980  0.77500894    -0.04900
C138        C  0.74748421  0.71811353  0.75081887     0.07320
C139        C  0.72402419  0.70032373  0.72799235     0.01120
H140        H  0.79344636  0.70746006  0.79726314     0.08770
H141        H  0.70146763  0.70595059  0.70573849     0.07850
N142        N  0.80545577  0.59985402  0.81095467    -0.35990
N143        N  0.79408668  0.57599704  0.79284550    -0.28170
C144        C  0.81367737  0.55521168  0.81154919    -0.03410
C145        C  0.83802358  0.56655017  0.84340470     0.05200
C146        C  0.83215482  0.59483777  0.84208660     0.03290
H147        H  0.81019706  0.53346679  0.80301503     0.08400
H148        H  0.84666376  0.61067028  0.86160219     0.07230
N149        N  0.70471617  0.38931482  0.29860949    -0.27160
N150        N  0.68843882  0.36534860  0.30544602    -0.35010
C151        C  0.65861842  0.36961011  0.33114004     0.01180
C152        C  0.65609907  0.39764213  0.34219723     0.07210
C153        C  0.68577388  0.40948564  0.32039408    -0.05890
H154        H  0.64001877  0.35333020  0.34009219     0.07880
H155        H  0.69327462  0.43115430  0.32059396     0.09080
Cu156      Cu  0.70785557  0.32750680  0.28198393     0.44170
Cu157      Cu  0.75114966  0.39321437  0.25829139     0.41990
Cu158      Cu  0.78534092  0.32851758  0.20665597     0.43880
N159        N  0.73357770  0.29185221  0.25935115    -0.34540
N160        N  0.76211038  0.29207777  0.23139342    -0.28800
C161        C  0.77256983  0.26573721  0.22342853    -0.04900
C162        C  0.74947257  0.24817985  0.24767376     0.07320
C163        C  0.72513008  0.26544675  0.27009623     0.01120
H164        H  0.79533164  0.25985113  0.20172070     0.08770
H165        H  0.70284751  0.25932799  0.29250026     0.07850
N166        N  0.80517130  0.36767266  0.19048841    -0.35990
N167        N  0.79380460  0.39096966  0.21049312    -0.28170
C168        C  0.81340986  0.41223467  0.19361417    -0.03410
C169        C  0.83807129  0.40201395  0.16052383     0.05200
C170        C  0.83192607  0.37356832  0.15990951     0.03290
H171        H  0.81019358  0.43336812  0.20581122     0.08400
H172        H  0.84581886  0.35809584  0.13873197     0.07230
N173        N  0.20508224  0.57609077  0.79935402    -0.27160
N174        N  0.18922743  0.59991395  0.80935903    -0.35010
C175        C  0.16039499  0.59496002  0.83682058     0.01180
C176        C  0.15828250  0.56669755  0.84505528     0.07210
C177        C  0.18696250  0.55533574  0.82062970    -0.05890
H178        H  0.14247566  0.61079430  0.85016864     0.07880
H179        H  0.19375882  0.53357835  0.81767127     0.09080
Cu180      Cu  0.20781538  0.63811241  0.78622657     0.44170
Cu181      Cu  0.24978427  0.57291785  0.75579996     0.41990
Cu182      Cu  0.28650450  0.63775872  0.71088176     0.43880
N183        N  0.23233337  0.67380082  0.76121642    -0.34540
N184        N  0.26122535  0.67374807  0.73389354    -0.28800
C185        C  0.27054468  0.70014741  0.72433204    -0.04900
C186        C  0.24630458  0.71757965  0.74669158     0.07320
C187        C  0.22246385  0.70019040  0.76973871     0.01120
H188        H  0.29326361  0.70615561  0.70266214     0.08770
H189        H  0.19966984  0.70621384  0.79126910     0.07850
N190        N  0.30634682  0.59886735  0.69291652    -0.35990
N191        N  0.29297992  0.57530966  0.70937305    -0.28170
C192        C  0.31185905  0.55399413  0.69124632    -0.03410
C193        C  0.33832301  0.56456991  0.66156705     0.05200
C194        C  0.33411504  0.59313784  0.66386139     0.03290
H195        H  0.30707507  0.53245984  0.70011201     0.08400
H196        H  0.35000258  0.60866851  0.64561365     0.07230
O197        O  0.96062812  0.48671767  0.93573473    -0.72810
O198        O  0.03607288  0.44762413  0.01144433    -0.73790
O199        O  0.96094696  0.44720338  0.01234251    -0.62410
O200        O  0.03592974  0.48691425  0.93545632    -0.70820
O201        O  0.03581029  0.52110199  0.98959155    -0.70370
O202        O  0.96011377  0.48177008  0.06556318    -0.61630
O203        O  0.03580964  0.48141505  0.06577113    -0.74140
O204        O  0.96035712  0.52105345  0.98928744    -0.72910
Cu205      Cu  0.99836063  0.46594467  0.97187764     1.04560
Cu206      Cu  0.99803336  0.50254343  0.02946503     1.04330
C207        C  0.94865692  0.51011770  0.95021131     0.93390
C208        C  0.04794374  0.45813453  0.05067328     0.92530
C209        C  0.94874735  0.45819675  0.05109878     0.84670
C210        C  0.04770988  0.51018817  0.95066004     0.90940
O211        O  0.53359534  0.47936214  0.43672675    -0.72810
O212        O  0.46072773  0.51855165  0.51805695    -0.73790
O213        O  0.53561428  0.51759326  0.51460094    -0.62410
O214        O  0.45795271  0.48026727  0.43984717    -0.70820
O215        O  0.45984308  0.44450450  0.49065297    -0.70370
O216        O  0.53547417  0.48326945  0.56806563    -0.61630
O217        O  0.45967244  0.48282298  0.56896037    -0.74140
O218        O  0.53512082  0.44505116  0.49002122    -0.72910
Cu219      Cu  0.49692049  0.50013983  0.47546609     1.04560
Cu220      Cu  0.49751844  0.46268291  0.53128198     1.04330
C221        C  0.54641053  0.45616452  0.45086588     0.93390
C222        C  0.44868827  0.50682250  0.55616933     0.92530
C223        C  0.54777070  0.50650541  0.55323846     0.84670
C224        C  0.44696738  0.45638752  0.45321826     0.90940
N225        N  0.29448141  0.39011515  0.29371386    -0.27160
N226        N  0.30863276  0.36605100  0.30627579    -0.35010
C227        C  0.33725735  0.37072642  0.33419626     0.01180
C228        C  0.34135133  0.39912067  0.33946705     0.07210
C229        C  0.31354927  0.41077012  0.31370409    -0.05890
H230        H  0.35351724  0.35459263  0.35009060     0.07880
H231        H  0.30785109  0.43263880  0.30930763     0.09080
Cu232      Cu  0.28824506  0.32790481  0.28576505     0.44170
Cu233      Cu  0.25032047  0.39365258  0.24940267     0.41990
Cu234      Cu  0.20807164  0.32880624  0.21425619     0.43880
N235        N  0.26301340  0.29235626  0.26145468    -0.34540
N236        N  0.23358140  0.29260978  0.23531429    -0.28800
C237        C  0.22417158  0.26629621  0.22518500    -0.04900
C238        C  0.24889988  0.24870751  0.24602062     0.07320
C239        C  0.27312560  0.26591405  0.26872227     0.01120
H240        H  0.20111301  0.26045923  0.20409290     0.08770
H241        H  0.29644701  0.25973317  0.28897917     0.07850
N242        N  0.18930183  0.36777137  0.19513292    -0.35990
N243        N  0.20524268  0.39129554  0.20659803    -0.28170
C244        C  0.18718713  0.41256179  0.18686746    -0.03410
C245        C  0.15790579  0.40203737  0.16237050     0.05200
C246        C  0.16041651  0.37347447  0.16836106     0.03290
H247        H  0.19558522  0.43393428  0.18941624     0.08400
H248        H  0.14253844  0.35783200  0.15438658     0.07230
C249        C  0.41965777  0.44209805  0.42449858    -0.00020
C250        C  0.42992719  0.41973448  0.39521276    -0.11900
C251        C  0.40499946  0.40579347  0.36648484     0.02210
C252        C  0.36888983  0.41388913  0.36774986    -0.00110
C253        C  0.35878169  0.43652250  0.39677614    -0.11830
C254        C  0.38385519  0.45067610  0.42499916     0.02100
H255        H  0.45766403  0.41352573  0.39406506     0.15080
H256        H  0.33113114  0.44293070  0.39792497     0.15080
C257        C  0.37213936  0.47358611  0.45474138     0.36730
C258        C  0.41753938  0.38441327  0.33399044     0.36640
N259        N  0.36249090  0.49195941  0.47836826    -0.43610
N260        N  0.42762217  0.36744878  0.30762743    -0.43610
C261        C  0.13029216  0.41721729  0.13406082    -0.00020
C262        C  0.11283498  0.40299511  0.09651280    -0.11900
C263        C  0.08595299  0.41557402  0.06925926     0.02210
C264        C  0.07608428  0.44344903  0.07871697    -0.00110
C265        C  0.09359016  0.45773879  0.11617346    -0.11830
C266        C  0.12020712  0.44499799  0.14387529     0.02100
H267        H  0.12020170  0.38179521  0.08804340     0.15080
H268        H  0.08635911  0.47904226  0.12422847     0.15080
C269        C  0.13530755  0.46087067  0.18315338     0.36730
C270        C  0.06869067  0.39884216  0.03273623     0.36640
N271        N  0.14712079  0.47392832  0.21446347    -0.43610
N272        N  0.05494358  0.38527696  0.00363381    -0.43610
C273        C  0.13035236  0.55189221  0.87247207    -0.00020
C274        C  0.09461668  0.55891549  0.86427014    -0.11900
C275        C  0.06723988  0.54531244  0.88912923     0.02210
C276        C  0.07557408  0.52455356  0.92316334    -0.00110
C277        C  0.11117262  0.51761967  0.93177367    -0.11830
C278        C  0.13859610  0.53111383  0.90679504     0.02100
H279        H  0.08806168  0.57481109  0.83791743     0.15080
H280        H  0.11753282  0.50184780  0.95846069     0.15080
C281        C  0.17489380  0.52425124  0.91884907     0.36730
C282        C  0.03082602  0.55277615  0.87890054     0.36640
N283        N  0.20397381  0.51883217  0.92874129    -0.43610
N284        N  0.00166165  0.55875965  0.87059632    -0.43610
C285        C  0.42143055  0.52109950  0.58521485    -0.00020
C286        C  0.38798235  0.50872045  0.59040741    -0.11900
C287        C  0.36026933  0.52264948  0.61408744     0.02210
C288        C  0.36639995  0.54905032  0.63506588    -0.00110
C289        C  0.40030566  0.56108190  0.63060437    -0.11830
C290        C  0.42765361  0.54743104  0.60571324     0.02100
H291        H  0.38313447  0.48854114  0.57429938     0.15080
H292        H  0.40561248  0.58112444  0.64692569     0.15080
C293        C  0.46221140  0.56040661  0.60307730     0.36730
C294        C  0.32540245  0.51015477  0.61303630     0.36640
N295        N  0.48993054  0.57077330  0.60126874    -0.43610
N296        N  0.29747357  0.50011085  0.61159627    -0.43610
C297        C  0.62776955  0.41218278  0.37031642    -0.00020
C298        C  0.62105168  0.44036711  0.36062089    -0.11900
C299        C  0.59502891  0.45522548  0.38618941     0.02210
C300        C  0.57441932  0.44174870  0.42211558    -0.00110
C301        C  0.58127849  0.41363401  0.43194981    -0.11830
C302        C  0.60769657  0.39893174  0.40708785     0.02100
H303        H  0.63619450  0.45100092  0.33282948     0.15080
H304        H  0.56612781  0.40297583  0.45975229     0.15080
C305        C  0.61441324  0.37074991  0.42234845     0.36730
C306        C  0.59123043  0.48446177  0.37574840     0.36640
N307        N  0.61946351  0.34820122  0.43512270    -0.43610
N308        N  0.58843096  0.50791782  0.36745656    -0.43610
C309        C  0.86615795  0.41726252  0.13286406    -0.00020
C310        C  0.89607226  0.40231224  0.11651642    -0.11900
C311        C  0.92304726  0.41512904  0.08964400     0.02210
C312        C  0.92097310  0.44372114  0.07931289    -0.00110
C313        C  0.89161358  0.45889354  0.09596806    -0.11830
C314        C  0.86403936  0.44598473  0.12170155     0.02100
H315        H  0.89881125  0.38047842  0.12504464     0.15080
H316        H  0.88969009  0.48083976  0.08750410     0.15080
C317        C  0.83343884  0.46274332  0.13352560     0.36730
C318        C  0.95317820  0.39862915  0.07460741     0.36640
N319        N  0.80911526  0.47656288  0.14246970    -0.43610
N320        N  0.97728553  0.38535941  0.06261215    -0.43610
C321        C  0.86564253  0.55182179  0.87126667    -0.00020
C322        C  0.89007089  0.53508740  0.84640298    -0.11900
C323        C  0.91766460  0.52167492  0.87112584     0.02210
C324        C  0.92065442  0.52450468  0.92201472    -0.00110
C325        C  0.89599836  0.54124284  0.94677969    -0.11830
C326        C  0.86863517  0.55482678  0.92190508     0.02100
H327        H  0.88811056  0.53308262  0.80734365     0.15080
H328        H  0.89771387  0.54336204  0.98583496     0.15080
C329        C  0.84304537  0.57073315  0.94936455     0.36730
C330        C  0.94346672  0.50637348  0.84297350     0.36640
N331        N  0.82240473  0.58333296  0.97139985    -0.43610
N332        N  0.96428910  0.49429987  0.82035923    -0.43610
C333        C  0.62821749  0.55200958  0.63263188    -0.00020
C334        C  0.62619650  0.52282082  0.63627974    -0.11900
C335        C  0.60065919  0.50747393  0.61071777     0.02210
C336        C  0.57576176  0.52126835  0.58102799    -0.00110
C337        C  0.57768460  0.55021679  0.57702013    -0.11830
C338        C  0.60333015  0.56561801  0.60195594     0.02100
H339        H  0.64464886  0.51161522  0.65911842     0.15080
H340        H  0.55884773  0.56106576  0.55403146     0.15080
C341        C  0.60309601  0.59515376  0.59338308     0.36730
C342        C  0.60181001  0.47755101  0.61398349     0.36640
N343        N  0.60189869  0.61875832  0.58561571    -0.43610
N344        N  0.60291685  0.45357204  0.61635354    -0.43610
C345        C  0.41969304  0.94196486  0.57142058    -0.00020
C346        C  0.41266185  0.91394390  0.56107048    -0.11900
C347        C  0.38598220  0.89925948  0.58546812     0.02210
C348        C  0.36580870  0.91243628  0.62231810    -0.00110
C349        C  0.37258273  0.94058138  0.63225750    -0.11830
C350        C  0.39879154  0.95542147  0.60713063     0.02100
H351        H  0.42796261  0.90332435  0.53335641     0.15080
H352        H  0.35745235  0.95121827  0.66006051     0.15080
C353        C  0.40260777  0.98460263  0.61810511     0.36730
C354        C  0.37934089  0.87113771  0.56982500     0.36640
N355        N  0.40541138  0.00800765  0.62684785    -0.43610
N356        N  0.37443777  0.84863228  0.55669471    -0.43610
C357        C  0.62780564  0.91466313  0.62958794    -0.00020
C358        C  0.63588393  0.92388321  0.58268297    -0.11900
C359        C  0.61015584  0.93740063  0.55457468     0.02210
C360        C  0.57598796  0.94224041  0.57391003    -0.00110
C361        C  0.56812039  0.93343142  0.62113824    -0.11830
C362        C  0.59361141  0.91938044  0.64882934     0.02100
H363        H  0.66223403  0.92030215  0.56790471     0.15080
H364        H  0.54182913  0.93711708  0.63604624     0.15080
C365        C  0.58419578  0.91002152  0.69684441     0.36730
C366        C  0.61961703  0.94682699  0.50658562     0.36640
N367        N  0.57663388  0.90246229  0.73529335    -0.43610
N368        N  0.62713094  0.95447729  0.46816886    -0.43610
C369        C  0.36902621  0.05201251  0.36165197    -0.00020
C370        C  0.37712435  0.02437124  0.34952655    -0.11900
C371        C  0.40278853  0.00921455  0.37514141     0.02210
C372        C  0.42155748  0.02183061  0.41383465    -0.00110
C373        C  0.41315516  0.04937815  0.42620558    -0.11830
C374        C  0.38715145  0.06436182  0.40111234     0.02100
H375        H  0.36349844  0.01445684  0.31957438     0.15080
H376        H  0.42678916  0.05938925  0.45608474     0.15080
C377        C  0.37887090  0.09185884  0.41865173     0.36730
C378        C  0.40842597  0.98063593  0.36120203     0.36720
N379        N  0.37256354  0.11385672  0.43323352    -0.43610
N380        N  0.41270185  0.95771536  0.34997981    -0.43610
C381        C  0.91964766  0.94424410  0.91632678    -0.00020
C382        C  0.92639684  0.91744799  0.89897025    -0.11900
C383        C  0.90076947  0.90297236  0.87228246     0.02210
C384        C  0.86699296  0.91508528  0.86375105    -0.00110
C385        C  0.86043911  0.94207991  0.88117699    -0.11830
C386        C  0.88643077  0.95669605  0.90715627     0.02100
H387        H  0.95218970  0.90802146  0.90541493     0.15080
H388        H  0.83468841  0.95164602  0.87534586     0.15080
C389        C  0.87790269  0.98388200  0.92600948     0.36730
C390        C  0.91084299  0.87641960  0.85222236     0.36640
N391        N  0.87112798  0.00561237  0.94138967    -0.43610
N392        N  0.91923129  0.85519370  0.83617554    -0.43610
C393        C  0.07731356  0.02307019  0.07185314    -0.00020
C394        C  0.08964119  0.04891858  0.05507327    -0.11900
C395        C  0.11641945  0.06348177  0.07941325     0.02210
C396        C  0.13146537  0.05241439  0.12219149    -0.00110
C397        C  0.11957849  0.02647068  0.13874950    -0.11830
C398        C  0.09290758  0.01178149  0.11428385     0.02100
H399        H  0.07852745  0.05788268  0.02237528     0.15080
H400        H  0.13083735  0.01769839  0.17151283     0.15080
C401        C  0.08248481  0.98521835  0.13395506     0.36730
C402        C  0.12878783  0.08910074  0.05810212     0.36640
N403        N  0.07428672  0.96393593  0.14990187    -0.43610
N404        N  0.13852468  0.10959826  0.04069406    -0.43610
C405        C  0.07458657  0.94380149  0.91354004    -0.00020
C406        C  0.06420580  0.92550552  0.87674287    -0.11900
C407        C  0.08968785  0.91138726  0.84909349     0.02210
C408        C  0.12622842  0.91583265  0.85789543    -0.00110
C409        C  0.13654801  0.93450904  0.89433350    -0.11830
C410        C  0.11100430  0.94824107  0.92256348     0.02100
H411        H  0.03613214  0.92220555  0.86972048     0.15080
H412        H  0.16458583  0.93786596  0.90145900     0.15080
C413        C  0.12260104  0.96646709  0.96101831     0.36730
C414        C  0.07771887  0.89315770  0.81090007     0.36640
N415        N  0.13176874  0.98098094  0.99202028    -0.43610
N416        N  0.06815435  0.87859666  0.78019836    -0.43610
C417        C  0.57730202  0.02201492  0.41669664    -0.00020
C418        C  0.60113592  0.03903633  0.44230079    -0.11900
C419        C  0.62840810  0.05324850  0.41835207     0.02210
C420        C  0.63226800  0.05054837  0.36780250    -0.00110
C421        C  0.60882236  0.03341391  0.34206537    -0.11830
C422        C  0.58120963  0.01941173  0.36586599     0.02100
H423        H  0.59875897  0.04100631  0.48131730     0.15080
H424        H  0.61154627  0.03156192  0.30306102     0.15080
C425        C  0.55631176  0.00378613  0.33683792     0.36730
C426        C  0.65296672  0.06960686  0.44665320     0.36640
N427        N  0.53623980  0.99144049  0.31348436    -0.43610
N428        N  0.67277962  0.08260356  0.46931866    -0.43610
C429        C  0.86758787  0.05009848  0.12884574    -0.00020
C430        C  0.89846321  0.06466625  0.11507960    -0.11900
C431        C  0.92529791  0.05192715  0.08781506     0.02210
C432        C  0.92204405  0.02379116  0.07461181    -0.00110
C433        C  0.89168383  0.00901088  0.08857609    -0.11830
C434        C  0.86427018  0.02189273  0.11460813     0.02100
H435        H  0.90200950  0.08609632  0.12588775     0.15080
H436        H  0.88886466  0.98747946  0.07768502     0.15080
C437        C  0.83261083  0.00575986  0.12343260     0.36730
C438        C  0.95642549  0.06794971  0.07519838     0.36640
N439        N  0.80742206  0.99247304  0.12997225    -0.43610
N440        N  0.98135544  0.08078455  0.06507432    -0.43610
loop_ 
_geom_bond_atom_site_label_1 
_geom_bond_atom_site_label_2 
_geom_bond_distance 
_geom_bond_site_symmetry_2 
_ccdc_geom_bond_type 
N1            N2   1.322       .  A
N1            C5   1.345       .  A
N1           Cu9   2.070       .  S
N2            C3   1.345       .  A
N2           Cu8   2.075       .  S
C3            C4   1.382       .  A
C3            H6   1.082       .  S
C4            C5   1.381       .  A
C4          C420   1.474       .  S
C5            H7   1.081       .  S
Cu8          N11   2.075       .  S
Cu9          N19   2.070       .  S
Cu10         N12   2.073       .  S
Cu10         N18   2.073       .  S
N11          N12   1.322       .  A
N11          C15   1.345       .  A
N12          C13   1.345       .  A
C13          C14   1.383       .  A
C13          H16   1.082       .  S
C14          C15   1.384       .  A
C14         C162   1.472       .  S
C15          H17   1.082       .  S
N18          N19   1.320       .  A
N18          C22   1.343       .  A
N19          C20   1.344       .  A
C20          C21   1.389       .  A
C20          H23   1.079       .  S
C21          C22   1.390       .  A
C21         C429   1.493       .  S
C22          H24   1.081       .  S
O25         Cu33   2.003   1_554  S
O25          C35   1.277       .  A
O26         Cu33   2.010   1_465  S
O26          C36   1.277       .  A
O27         Cu33   2.013   1_565  S
O27          C37   1.278       .  A
O28         Cu33   2.007   1_454  S
O28          C38   1.279       .  A
O29         Cu34   2.007   1_455  S
O29          C38   1.277   1_565  A
O30         Cu34   2.004   1_556  S
O30          C37   1.277       .  A
O31         Cu34   2.006   1_456  S
O31          C36   1.276       .  A
O32         Cu34   2.010       .  S
O32          C35   1.278   1_565  A
Cu33        Cu34   2.373   1_546  S
C35         C432   1.474       .  S
C36         C405   1.468       .  S
C37         C381   1.473       .  S
C38         C393   1.493       .  S
N39          N40   1.322       .  A
N39          C43   1.346       .  A
N39         Cu47   2.081       .  S
N40          C41   1.342       .  A
N40         Cu46   2.068       .  S
C41          C42   1.385       .  A
C41          H44   1.081       .  S
C42          C43   1.388       .  A
C42         C396   1.487       .  S
C43          H45   1.082       .  S
Cu46         N49   2.067       .  S
Cu47         N57   2.080       .  S
Cu48         N50   2.069       .  S
Cu48         N56   2.069       .  S
N49          N50   1.321       .  A
N49          C53   1.345       .  A
N50          C51   1.344       .  A
C51          C52   1.383       .  A
C51          H54   1.082       .  S
C52          C53   1.383       .  A
C52         C238   1.470       .  S
C53          H55   1.082       .  S
N56          N57   1.321       .  A
N56          C60   1.342       .  A
N57          C58   1.346       .  A
C58          C59   1.390       .  A
C58          H61   1.081       .  S
C59          C60   1.387       .  A
C59         C369   1.491       .  S
C60          H62   1.079       .  S
N63          N64   1.321       .  A
N63          C67   1.347       .  A
N63         Cu71   2.080       .  S
N64          C65   1.342       .  A
N64         Cu70   2.067       .  S
C65          C66   1.386       .  A
C65          H68   1.081       .  S
C66          C67   1.389       .  A
C66         C384   1.489       .  S
C67          H69   1.081       .  S
Cu70         N73   2.067       .  S
Cu71         N81   2.080       .  S
Cu72         N74   2.074       .  S
Cu72         N80   2.075       .  S
N73          N74   1.321       .  A
N73          C77   1.344       .  A
N74          C75   1.345       .  A
C75          C76   1.384       .  A
C75          H78   1.082       .  S
C76          C77   1.382       .  A
C76         C138   1.471       .  S
C77          H79   1.082       .  S
N80          N81   1.324       .  A
N80          C84   1.345       .  A
N81          C82   1.346       .  A
C82          C83   1.381       .  A
C82          H85   1.081       .  S
C83          C84   1.380       .  A
C83         C357   1.472       .  S
C84          H86   1.082       .  S
O87         Cu95   2.009       .  S
O87          C97   1.277       .  A
O88         Cu95   2.006       .  S
O88          C98   1.277   1_565  A
O89         Cu95   2.006       .  S
O89          C99   1.277   1_565  A
O90         Cu95   2.012       .  S
O90         C100   1.280       .  A
O91         Cu96   2.001   1_565  S
O91         C100   1.276       .  A
O92         Cu96   2.007       .  S
O92          C99   1.278       .  A
O93         Cu96   2.007       .  S
O93          C98   1.279       .  A
O94         Cu96   2.007   1_565  S
O94          C97   1.277       .  A
Cu95        Cu96   2.369   1_565  S
C97         C360   1.472       .  S
C98         C372   1.492       .  S
C99         C417   1.483       .  S
C100        C345   1.491       .  S
N101        N102   1.324       .  A
N101        C105   1.347       .  A
N101       Cu109   2.081       .  S
N102        C103   1.344       .  A
N102       Cu108   2.074       .  S
C103        C104   1.381       .  A
C103        H106   1.082       .  S
C104        C105   1.383       .  A
C104        C408   1.477       .  S
C105        H107   1.081       .  S
Cu108       N111   2.074       .  S
Cu109       N119   2.081       .  S
Cu110       N112   2.065       .  S
Cu110       N118   2.065       .  S
N111        N112   1.321       .  A
N111        C115   1.345       .  A
N112        C113   1.344       .  A
C113        C114   1.382       .  A
C113        H116   1.082       .  S
C114        C115   1.384       .  A
C114        C186   1.471       .  S
C115        H117   1.082       .  S
N118        N119   1.320       .  A
N118        C122   1.342       .  A
N119        C120   1.346       .  A
C120        C121   1.392       .  A
C120        H123   1.081       .  S
C121        C122   1.387       .  A
C121        C348   1.494       .  S
C122        H124   1.079       .  S
N125        N126   1.318       .  A
N125        C129   1.346       .  A
N125       Cu133   2.080       .  S
N126        C127   1.340       .  A
N126       Cu132   2.065       .  S
C127        C128   1.391       .  A
C127        H130   1.076       .  S
C128        C129   1.396       .  A
C128        C333   1.502       .  S
C129        H131   1.080       .  S
Cu132       N135   2.065       .  S
Cu133       N143   2.080       .  S
Cu134       N136   2.072       .  S
Cu134       N142   2.073       .  S
N135        N136   1.321       .  A
N135        C139   1.344       .  A
N136        C137   1.345       .  A
C137        C138   1.385       .  A
C137        H140   1.082       .  S
C138        C139   1.382       .  A
C139        H141   1.082       .  S
N142        N143   1.324       .  A
N142        C146   1.344       .  A
N143        C144   1.346       .  A
C144        C145   1.382       .  A
C144        H147   1.081       .  S
C145        C146   1.381       .  A
C145        C321   1.475       .  S
C146        H148   1.082       .  S
N149        N150   1.320       .  A
N149        C153   1.346       .  A
N149       Cu157   2.079       .  S
N150        C151   1.342       .  A
N150       Cu156   2.067       .  S
C151        C152   1.387       .  A
C151        H154   1.080       .  S
C152        C153   1.390       .  A
C152        C297   1.492       .  S
C153        H155   1.081       .  S
Cu156       N159   2.067       .  S
Cu157       N167   2.079       .  S
Cu158       N160   2.076       .  S
Cu158       N166   2.077       .  S
N159        N160   1.321       .  A
N159        C163   1.344       .  A
N160        C161   1.346       .  A
C161        C162   1.385       .  A
C161        H164   1.082       .  S
C162        C163   1.382       .  A
C163        H165   1.082       .  S
N166        N167   1.321       .  A
N166        C170   1.343       .  A
N167        C168   1.345       .  A
C168        C169   1.391       .  A
C168        H171   1.079       .  S
C169        C170   1.389       .  A
C169        C309   1.496       .  S
C170        H172   1.081       .  S
N173        N174   1.322       .  A
N173        C177   1.345       .  A
N173       Cu181   2.072       .  S
N174        C175   1.344       .  A
N174       Cu180   2.069       .  S
C175        C176   1.382       .  A
C175        H178   1.082       .  S
C176        C177   1.384       .  A
C176        C273   1.478       .  S
C177        H179   1.082       .  S
Cu180       N183   2.069       .  S
Cu181       N191   2.072       .  S
Cu182       N184   2.076       .  S
Cu182       N190   2.076       .  S
N183        N184   1.322       .  A
N183        C187   1.344       .  A
N184        C185   1.345       .  A
C185        C186   1.384       .  A
C185        H188   1.082       .  S
C186        C187   1.382       .  A
C187        H189   1.082       .  S
N190        N191   1.322       .  A
N190        C194   1.345       .  A
N191        C192   1.344       .  A
C192        C193   1.386       .  A
C192        H195   1.081       .  S
C193        C194   1.386       .  A
C193        C288   1.485       .  S
C194        H196   1.082       .  S
O197       Cu205   2.003       .  S
O197        C207   1.277       .  A
O198       Cu205   1.996   1_454  S
O198        C208   1.276       .  A
O199       Cu205   2.010   1_554  S
O199        C209   1.278       .  A
O200       Cu205   2.007   1_455  S
O200        C210   1.276       .  A
O201       Cu206   2.007   1_456  S
O201        C210   1.276       .  A
O202       Cu206   2.007       .  S
O202        C209   1.277       .  A
O203       Cu206   2.015   1_455  S
O203        C208   1.280       .  A
O204       Cu206   2.009   1_556  S
O204        C207   1.278       .  A
Cu205      Cu206   2.373   1_556  S
C207        C324   1.482       .  S
C208        C264   1.490       .  S
C209        C312   1.478       .  S
C210        C276   1.467       .  S
O211       Cu219   2.011       .  S
O211        C221   1.278       .  A
O212       Cu219   2.004       .  S
O212        C222   1.277       .  A
O213       Cu219   1.998       .  S
O213        C223   1.278       .  A
O214       Cu219   2.008       .  S
O214        C224   1.277       .  A
O215       Cu220   2.009       .  S
O215        C224   1.277       .  A
O216       Cu220   2.013       .  S
O216        C223   1.278       .  A
O217       Cu220   2.011       .  S
O217        C222   1.277       .  A
O218       Cu220   2.003       .  S
O218        C221   1.278       .  A
Cu219      Cu220   2.373       .  S
C221        C300   1.490       .  S
C222        C285   1.471       .  S
C223        C336   1.484       .  S
C224        C249   1.469       .  S
N225        N226   1.322       .  A
N225        C229   1.345       .  A
N225       Cu233   2.070       .  S
N226        C227   1.343       .  A
N226       Cu232   2.070       .  S
C227        C228   1.384       .  A
C227        H230   1.082       .  S
C228        C229   1.384       .  A
C228        C252   1.480       .  S
C229        H231   1.082       .  S
Cu232       N235   2.070       .  S
Cu233       N243   2.070       .  S
Cu234       N236   2.073       .  S
Cu234       N242   2.073       .  S
N235        N236   1.322       .  A
N235        C239   1.344       .  A
N236        C237   1.345       .  A
C237        C238   1.383       .  A
C237        H240   1.082       .  S
C238        C239   1.382       .  A
C239        H241   1.082       .  S
N242        N243   1.320       .  A
N242        C246   1.343       .  A
N243        C244   1.344       .  A
C244        C245   1.389       .  A
C244        H247   1.079       .  S
C245        C246   1.389       .  A
C245        C261   1.492       .  S
C246        H248   1.081       .  S
C249        C250   1.400       .  A
C249        C254   1.408       .  A
C250        C251   1.400       .  A
C250        H255   1.086       .  S
C251        C252   1.413       .  A
C251        C258   1.444       .  S
C252        C253   1.405       .  A
C253        C254   1.401       .  A
C253        H256   1.085       .  S
C254        C257   1.443       .  S
C257        N259   1.157       .  T
C258        N260   1.157       .  T
C261        C262   1.405       .  A
C261        C266   1.416       .  A
C262        C263   1.399       .  A
C262        H267   1.083       .  S
C263        C264   1.417       .  A
C263        C270   1.445       .  S
C264        C265   1.406       .  A
C265        C266   1.402       .  A
C265        H268   1.084       .  S
C266        C269   1.443       .  S
C269        N271   1.158       .  T
C270        N272   1.157       .  T
C273        C274   1.404       .  A
C273        C278   1.413       .  A
C274        C275   1.400       .  A
C274        H279   1.085       .  S
C275        C276   1.407       .  A
C275        C282   1.444       .  S
C276        C277   1.400       .  A
C277        C278   1.400       .  A
C277        H280   1.085       .  S
C278        C281   1.444       .  S
C281        N283   1.157       .  T
C282        N284   1.157       .  T
C285        C286   1.400       .  A
C285        C290   1.408       .  A
C286        C287   1.401       .  A
C286        H291   1.084       .  S
C287        C288   1.416       .  A
C287        C294   1.443       .  S
C288        C289   1.406       .  A
C289        C290   1.400       .  A
C289        H292   1.084       .  S
C290        C293   1.444       .  S
C293        N295   1.157       .  T
C294        N296   1.157       .  T
C297        C298   1.406       .  A
C297        C302   1.417       .  A
C298        C299   1.402       .  A
C298        H303   1.084       .  S
C299        C300   1.416       .  A
C299        C306   1.444       .  S
C300        C301   1.405       .  A
C301        C302   1.399       .  A
C301        H304   1.085       .  S
C302        C305   1.443       .  S
C305        N307   1.158       .  T
C306        N308   1.157       .  T
C309        C310   1.409       .  A
C309        C314   1.419       .  A
C310        C311   1.400       .  A
C310        H315   1.083       .  S
C311        C312   1.408       .  A
C311        C318   1.444       .  S
C312        C313   1.401       .  A
C313        C314   1.402       .  A
C313        H316   1.085       .  S
C314        C317   1.443       .  S
C317        N319   1.158       .  T
C318        N320   1.157       .  T
C321        C322   1.401       .  A
C321        C326   1.409       .  A
C322        C323   1.400       .  A
C322        H327   1.085       .  S
C323        C324   1.415       .  A
C323        C330   1.444       .  S
C324        C325   1.405       .  A
C325        C326   1.400       .  A
C325        H328   1.085       .  S
C326        C329   1.444       .  S
C329        N331   1.157       .  T
C330        N332   1.157       .  T
C333        C334   1.411       .  A
C333        C338   1.423       .  A
C334        C335   1.403       .  A
C334        H339   1.082       .  S
C335        C336   1.411       .  A
C335        C342   1.445       .  S
C336        C337   1.400       .  A
C337        C338   1.398       .  A
C337        H340   1.085       .  S
C338        C341   1.442       .  S
C341        N343   1.158       .  T
C342        N344   1.157       .  T
C345        C346   1.405       .  A
C345        C350   1.417       .  A
C346        C347   1.400       .  A
C346        H351   1.085       .  S
C347        C348   1.418       .  A
C347        C354   1.443       .  S
C348        C349   1.406       .  A
C349        C350   1.401       .  A
C349        H352   1.083       .  S
C350        C353   1.445       .  S
C353        N355   1.157   1_565  T
C354        N356   1.158       .  T
C357        C358   1.402       .  A
C357        C362   1.409       .  A
C358        C359   1.401       .  A
C358        H363   1.085       .  S
C359        C360   1.410       .  A
C359        C366   1.444       .  S
C360        C361   1.402       .  A
C361        C362   1.401       .  A
C361        H364   1.085       .  S
C362        C365   1.444       .  S
C365        N367   1.157       .  T
C366        N368   1.157       .  T
C369        C370   1.406       .  A
C369        C374   1.416       .  A
C370        C371   1.402       .  A
C370        H375   1.084       .  S
C371        C372   1.417       .  A
C371        C378   1.444   1_545  S
C372        C373   1.406       .  A
C373        C374   1.399       .  A
C373        H376   1.084       .  S
C374        C377   1.444       .  S
C377        N379   1.158       .  T
C378        N380   1.157       .  T
C381        C382   1.399       .  A
C381        C386   1.409       .  A
C382        C383   1.400       .  A
C382        H387   1.086       .  S
C383        C384   1.418       .  A
C383        C390   1.444       .  S
C384        C385   1.408       .  A
C385        C386   1.402       .  A
C385        H388   1.085       .  S
C386        C389   1.445       .  S
C389        N391   1.157   1_565  T
C390        N392   1.157       .  T
C393        C394   1.407       .  A
C393        C398   1.419       .  A
C394        C395   1.400       .  A
C394        H399   1.085       .  S
C395        C396   1.414       .  A
C395        C402   1.444       .  S
C396        C397   1.404       .  A
C397        C398   1.401       .  A
C397        H400   1.085       .  S
C398        C401   1.444   1_545  S
C401        N403   1.157       .  T
C402        N404   1.157       .  T
C405        C406   1.400       .  A
C405        C410   1.409       .  A
C406        C407   1.400       .  A
C406        H411   1.085       .  S
C407        C408   1.412       .  A
C407        C414   1.444       .  S
C408        C409   1.404       .  A
C409        C410   1.402       .  A
C409        H412   1.085       .  S
C410        C413   1.445       .  S
C413        N415   1.157       .  T
C414        N416   1.157       .  T
C417        C418   1.406       .  A
C417        C422   1.416       .  A
C418        C419   1.399       .  A
C418        H423   1.084       .  S
C419        C420   1.408       .  A
C419        C426   1.444       .  S
C420        C421   1.401       .  A
C421        C422   1.402       .  A
C421        H424   1.085       .  S
C422        C425   1.444       .  S
C425        N427   1.157   1_545  T
C426        N428   1.157       .  T
C429        C430   1.409       .  A
C429        C434   1.419       .  A
C430        C431   1.400       .  A
C430        H435   1.083       .  S
C431        C432   1.408       .  A
C431        C438   1.445       .  S
C432        C433   1.400       .  A
C433        C434   1.401       .  A
C433        H436   1.085   1_545  S
C434        C437   1.443       .  S
C437        N439   1.158   1_545  T
C438        N440   1.157       .  T
