geometry optimzed in LAMMPS
_audit_creation_date              2020-11-30 
_audit_creation_method            'lammps2cif' 
_symmetry_space_group_name_H-M    'P1' 
_symmetry_Int_Tables_number       1 
_symmetry_cell_setting            triclinic 
loop_ 
_symmetry_equiv_pos_as_xyz 
  x,y,z 
_cell_length_a                    48.84622031 
_cell_length_b                    49.067327679070196 
_cell_length_c                    31.724163521162325 
_cell_angle_alpha                 89.62641334545309 
_cell_angle_beta                  90.8616700160856 
_cell_angle_gamma                 129.3444282718375 
loop_ 
_atom_site_label 
_atom_site_type_symbol 
_atom_site_fract_x 
_atom_site_fract_y 
_atom_site_fract_z 
_atom_site_charge 
O1          O  0.22536220  0.72260830  0.32319807    -0.57400
C2          C  0.16881851  0.62825247  0.29540606     0.75200
O3          O  0.13718722  0.69444945  0.35986272    -0.58600
C4          C  0.22885054  0.75040330  0.31986641     0.75200
C5          C  0.14708594  0.69012568  0.21671751     0.77600
Cd6        Cd  0.16211475  0.68210039  0.30225836     1.37500
O7          O  0.19180204  0.65730306  0.31403813    -0.57400
O8          O  0.17433270  0.69430333  0.22815891    -0.56200
C9          C  0.12149163  0.66518286  0.37819726     0.77500
O10         O  0.12493960  0.68118681  0.24538932    -0.58600
O11         O  0.14214207  0.62394889  0.28015379    -0.57000
O12         O  0.20120887  0.74601226  0.30957611    -0.57000
O13         O  0.12087907  0.64253088  0.35838888    -0.56200
O14         O  0.21440572  0.71504678  0.63276832    -0.57400
C15         C  0.14336266  0.61100786  0.64848375     0.75200
O16         O  0.11450670  0.67636651  0.69265026    -0.58600
C17         C  0.21659855  0.74192337  0.62702899     0.75200
C18         C  0.11627723  0.65695386  0.55574236     0.77600
Cd19       Cd  0.14930843  0.67236824  0.63847498     1.37500
O20         O  0.17287364  0.64135542  0.64321140    -0.57400
O21         O  0.10818424  0.66849277  0.58457821    -0.56200
C22         C  0.13403982  0.68060736  0.72323701     0.77500
O23         O  0.13772620  0.65182138  0.56605540    -0.58600
O24         O  0.11614210  0.60891915  0.65008805    -0.57000
O25         O  0.18744911  0.73614325  0.62503945    -0.57000
O26         O  0.15809707  0.67918522  0.71395350    -0.56200
O27         O  0.18137093  0.50708679  0.65606778    -0.57400
C28         C  0.22301107  0.45654046  0.62890924     0.75200
O29         O  0.12678056  0.39756614  0.69137692    -0.58600
C30         C  0.15096736  0.49889183  0.65563457     0.75200
C31         C  0.13321537  0.43061439  0.55581065     0.77600
Cd32       Cd  0.15978784  0.44776186  0.64068417     1.37500
O33         O  0.22412761  0.48291509  0.63306072    -0.57400
O34         O  0.15976103  0.46092188  0.56833369    -0.56200
C35         C  0.14557176  0.41746432  0.72255118     0.77500
O36         O  0.11693734  0.40646616  0.58351453    -0.58600
O37         O  0.19249191  0.42662700  0.62860241    -0.57000
O38         O  0.12455986  0.46664874  0.64973128    -0.57000
O39         O  0.16787250  0.45003262  0.71517331    -0.56200
O40         O  0.24676236  0.49153948  0.31780641    -0.57400
C41         C  0.17884555  0.51643864  0.28997711     0.75200
O42         O  0.15095754  0.41634535  0.24626629    -0.58600
C43         C  0.24148544  0.46325033  0.32662102     0.75200
C44         C  0.14758327  0.43945612  0.38000470     0.77600
Cd45       Cd  0.18404444  0.46196542  0.30188593     1.37500
O46         O  0.20807646  0.52340515  0.29941673    -0.57400
O47         O  0.17709837  0.46935087  0.37368750    -0.56200
C48         C  0.17455148  0.43449087  0.21847663     0.77500
O49         O  0.13377191  0.41774667  0.34931959    -0.58600
O50         O  0.15279756  0.48426604  0.28348068    -0.57000
O51         O  0.20966118  0.43522691  0.32505956    -0.57000
O52         O  0.20106375  0.46552059  0.22911711    -0.56200
O53         O  0.61352740  0.68290658  0.66668698    -0.57400
C54         C  0.66361957  0.77575979  0.65039833     0.75200
O55         O  0.73051284  0.76906108  0.70031715    -0.58600
C56         C  0.61198117  0.65616384  0.66773201     0.75200
C57         C  0.69280749  0.71777073  0.57268884     0.77600
Cd58       Cd  0.67663871  0.72624475  0.65596750     1.37500
O59         O  0.64238414  0.74616983  0.66816089    -0.57400
O60         O  0.66670762  0.71600905  0.58172738    -0.56200
C61         C  0.71837276  0.75026344  0.73316222     0.77500
O62         O  0.71388710  0.72482542  0.60270729    -0.58600
O63         O  0.69109094  0.78242141  0.63521693    -0.57000
O64         O  0.64112536  0.66193226  0.66474842    -0.57000
O65         O  0.68947094  0.71938442  0.72824563    -0.56200
O66         O  0.44532813  0.52148336  0.66197648    -0.57400
C67         C  0.34322869  0.45901625  0.63330121     0.75200
O68         O  0.42149852  0.46989929  0.57939893    -0.58600
C69         C  0.47133723  0.52190306  0.66704280     0.75200
C70         C  0.38072243  0.42431642  0.73210142     0.77600
Cd71       Cd  0.40107268  0.45853879  0.65096460     1.37500
O72         O  0.37399897  0.48697233  0.64230353    -0.57400
O73         O  0.39377147  0.45596635  0.72648846    -0.56200
C74         C  0.41305046  0.44026209  0.57114685     0.77500
O75         O  0.37849149  0.40806417  0.69959276    -0.58600
O76         O  0.33988051  0.43132921  0.63123588    -0.57000
O77         O  0.46468124  0.49238678  0.66559305    -0.57000
O78         O  0.39833615  0.41757146  0.60043736    -0.56200
O79         O  0.60668008  0.67695295  0.30007657    -0.57400
C80         C  0.66738119  0.77964499  0.33222894     0.75200
O81         O  0.71324471  0.73364453  0.36726342    -0.58600
C82         C  0.60869296  0.65249448  0.29764253     0.75200
C83         C  0.70113149  0.74445335  0.23119506     0.77600
Cd84       Cd  0.66966912  0.72398115  0.31318253     1.37500
O85         O  0.63952499  0.74841256  0.32494459    -0.57400
O86         O  0.67209022  0.73739098  0.23981322    -0.56200
C87         C  0.68968501  0.71688637  0.39532631     0.77500
O88         O  0.71633912  0.74122048  0.26129112    -0.58600
O89         O  0.69612772  0.78463460  0.33127128    -0.57000
O90         O  0.63932233  0.66144725  0.30103352    -0.57000
O91         O  0.65845130  0.70324150  0.38404459    -0.56200
O92         O  0.38822232  0.48313875  0.32887244    -0.57400
C93         C  0.47469689  0.51274534  0.29425439     0.75200
O94         O  0.38383218  0.40867249  0.37327052    -0.58600
C95         C  0.35544020  0.45743321  0.33047981     0.75200
C96         C  0.38420765  0.41522224  0.22688650     0.77600
Cd97       Cd  0.40586711  0.44782854  0.31002912     1.37500
O98         O  0.44776632  0.51077037  0.29872032    -0.57400
O99         O  0.39156538  0.44414323  0.23604677    -0.56200
C100        C  0.41310433  0.42799717  0.39314258     0.77500
O101        O  0.38696526  0.39977675  0.25693127    -0.58600
O102        O  0.46984721  0.48411979  0.29672893    -0.57000
O103        O  0.34640332  0.42723097  0.32427809    -0.57000
O104        O  0.43928899  0.45246392  0.37197703    -0.56200
O105        O  0.44843823  0.92175856  0.64200207    -0.57400
C106        C  0.35474632  0.88103288  0.62356109     0.75200
O107        O  0.41540246  0.98348495  0.69112799    -0.58600
C108        C  0.47882761  0.94910839  0.65371293     0.75200
C109        C  0.43689047  0.98841632  0.55922063     0.77600
Cd110      Cd  0.42150966  0.94991891  0.63798250     1.37500
O111        O  0.38355254  0.88804389  0.61329909    -0.57400
O112        O  0.45918008  0.98745601  0.57820968    -0.56200
C113        C  0.41075359  0.96415033  0.72168994     0.77500
O114        O  0.40858039  0.97476377  0.57893982    -0.58600
O115        O  0.35717198  0.90652532  0.63767898    -0.57000
O116        O  0.48291460  0.97726547  0.65699591    -0.57000
O117        O  0.41374810  0.94106546  0.71343618    -0.56200
O118        O  0.58821273  0.91737783  0.67482973    -0.57400
C119        C  0.64513672  0.88075672  0.65872214     0.75200
O120        O  0.69462051  0.98656892  0.62102375    -0.58600
C121        C  0.59519297  0.94701406  0.67766967     0.75200
C122        C  0.68111607  0.95695828  0.75490995     0.77600
Cd123      Cd  0.64977571  0.94121752  0.67220872     1.37500
O124        O  0.61831697  0.87702035  0.67092454    -0.57400
O125        O  0.64914331  0.93111856  0.74663106    -0.56200
C126        C  0.67289002  0.97172302  0.59009565     0.77500
O127        O  0.69887192  0.97797743  0.72465233    -0.58600
O128        O  0.67273195  0.91191358  0.65147332    -0.57000
O129        O  0.62764144  0.97378922  0.68090623    -0.57000
O130        O  0.64196928  0.94385968  0.59782863    -0.56200
O131        O  0.45793054  0.92808027  0.31362501    -0.57400
C132        C  0.36664195  0.88872998  0.32087708     0.75200
O133        O  0.41341600  0.97125745  0.36589748    -0.58600
C134        C  0.48962050  0.95532352  0.30759714     0.75200
C135        C  0.42127505  0.96769930  0.21693777     0.77600
Cd136      Cd  0.43230854  0.95724872  0.30414483     1.37500
O137        O  0.39602797  0.89502067  0.32409870    -0.57400
O138        O  0.42622408  0.94652111  0.22851172    -0.56200
C139        C  0.44393296  0.99503234  0.38109183     0.77500
O140        O  0.42449709  0.98735075  0.24587073    -0.58600
O141        O  0.36811206  0.91471184  0.31121453    -0.57000
O142        O  0.49476840  0.98363000  0.29973190    -0.57000
O143        O  0.46950523  0.00534149  0.35746488    -0.56200
O144        O  0.60299885  0.92701613  0.31950742    -0.57400
C145        C  0.66091771  0.89322508  0.34133725     0.75200
O146        O  0.71454753  0.99130102  0.27709874    -0.58600
C147        C  0.60853087  0.95601886  0.31826166     0.75200
C148        C  0.68313122  0.98029176  0.41300649     0.77600
Cd149      Cd  0.66506017  0.95354981  0.32867062     1.37500
O150        O  0.63342583  0.88991570  0.33353072    -0.57400
O151        O  0.65236961  0.95431745  0.40074104    -0.56200
C152        C  0.69602062  0.97077758  0.24628292     0.77500
O153        O  0.70724898  0.99579897  0.38539944    -0.58600
O154        O  0.68958692  0.92448793  0.34493647    -0.57000
O155        O  0.64062481  0.98385691  0.31969102    -0.57000
O156        O  0.66395521  0.94543267  0.25396624    -0.56200
O157        O  0.94511326  0.56135070  0.64996048    -0.57400
C158        C  0.90825528  0.61779606  0.64159539     0.75200
O159        O  0.00035586  0.67058641  0.70522384    -0.58600
C160        C  0.97434744  0.56787081  0.65742514     0.75200
C161        C  0.00189280  0.64786315  0.57127480     0.77600
Cd162      Cd  0.96953332  0.62278048  0.65200392     1.37500
O163        O  0.90491310  0.59013861  0.64655284    -0.57400
O164        O  0.97046003  0.62022010  0.57700578    -0.56200
C165        C  0.98390683  0.64988516  0.73617413     0.77500
O166        O  0.01958792  0.66642293  0.60360717    -0.58600
O167        O  0.93958754  0.64661146  0.64043759    -0.57000
O168        O  0.00098072  0.59991228  0.66384712    -0.57000
O169        O  0.96389578  0.61730342  0.72797665    -0.56200
O170        O  0.96822738  0.43146995  0.64460441    -0.57400
C171        C  0.93112081  0.33754051  0.64208656     0.75200
O172        O  0.02481383  0.39407552  0.60678514    -0.58600
C173        C  0.99221498  0.46153617  0.66065110     0.75200
C174        C  0.01222018  0.39916210  0.74509164     0.77600
Cd175      Cd  0.99719362  0.40645389  0.65948472     1.37500
O176        O  0.93266100  0.36402666  0.64754404    -0.57400
O177        O  0.98435716  0.39376116  0.73336944    -0.56200
C178        C  0.03513887  0.41967730  0.58303543     0.77500
O179        O  0.03523026  0.40995323  0.71695144    -0.58600
O180        O  0.96036094  0.34353318  0.64336281    -0.57000
O181        O  0.01889106  0.46601563  0.67619476    -0.57000
O182        O  0.03284332  0.44193234  0.59810902    -0.56200
O183        O  0.94306928  0.55730082  0.31657114    -0.57400
C184        C  0.90519102  0.61253823  0.33368466     0.75200
O185        O  0.01418021  0.66658030  0.36512265    -0.58600
C186        C  0.97250821  0.56424787  0.31054676     0.75200
C187        C  0.97653496  0.64549880  0.23269315     0.77600
Cd188      Cd  0.96637281  0.61853554  0.31658373     1.37500
O189        O  0.90170927  0.58563920  0.32284928    -0.57400
O190        O  0.95028444  0.61485176  0.24376601    -0.56200
C191        C  0.00167907  0.64576431  0.39644978     0.77500
O192        O  0.00038788  0.66432140  0.26077259    -0.58600
O193        O  0.93663485  0.64089655  0.33811694    -0.57000
O194        O  0.99892615  0.59644757  0.30522292    -0.57000
O195        O  0.97438489  0.61422531  0.38971279    -0.56200
O196        O  0.93065845  0.36236885  0.34441980    -0.57400
C197        C  0.98941237  0.45760946  0.32166321     0.75200
O198        O  0.00317201  0.38417656  0.39280703    -0.58600
C199        C  0.92624404  0.33430895  0.33809180     0.75200
C200        C  0.00934921  0.39315643  0.24130171     0.77600
Cd201      Cd  0.99365451  0.40197377  0.32551651     1.37500
O202        O  0.96250054  0.42586697  0.32817081    -0.57400
O203        O  0.98725542  0.39769405  0.24924719    -0.56200
C204        C  0.03016413  0.41442883  0.40460831     0.77500
O205        O  0.02682238  0.39505374  0.27277069    -0.58600
O206        O  0.01851773  0.46358812  0.31727502    -0.57000
O207        O  0.95328499  0.33829394  0.32676789    -0.57000
O208        O  0.04324784  0.43866952  0.37752798    -0.56200
O209        O  0.70448447  0.57911415  0.34315780    -0.57400
C210        C  0.79750593  0.62789253  0.33782460     0.75200
O211        O  0.77800940  0.68983794  0.27049719    -0.58600
C212        C  0.67837041  0.57379486  0.32452759     0.75200
C213        C  0.74407502  0.66935850  0.40099081     0.77600
Cd214      Cd  0.74801443  0.64064908  0.32406159     1.37500
O215        O  0.76485909  0.60277992  0.33183286    -0.57400
O216        O  0.77238091  0.67590319  0.38960686    -0.56200
C217        C  0.76740239  0.66951495  0.23889927     0.77500
O218        O  0.71936681  0.65473599  0.37371088    -0.58600
O219        O  0.80677254  0.65848849  0.33798538    -0.57000
O220        O  0.68462859  0.60009892  0.30568435    -0.57000
O221        O  0.74578408  0.63710529  0.24710456    -0.56200
O222        O  0.53749460  0.40881194  0.32702486    -0.57400
C223        C  0.48858316  0.31319102  0.31708368     0.75200
O224        O  0.44252711  0.33440484  0.36686758    -0.58600
C225        C  0.54167180  0.43425047  0.30886830     0.75200
C226        C  0.44749831  0.34251589  0.21779760     0.77600
Cd227      Cd  0.47695792  0.36281390  0.30297626     1.37500
O228        O  0.51393608  0.34522423  0.30914578    -0.57400
O229        O  0.47825440  0.35375344  0.22748039    -0.56200
C230        C  0.44396150  0.35954985  0.37980502     0.77500
O231        O  0.43030373  0.34232251  0.24754359    -0.58600
O232        O  0.45817451  0.30470394  0.31933241    -0.57000
O233        O  0.51565549  0.42634672  0.28689373    -0.57000
O234        O  0.45645513  0.38481916  0.35434306    -0.56200
O235        O  0.70550101  0.57620632  0.64335817    -0.57400
C236        C  0.79836099  0.63034833  0.64424924     0.75200
O237        O  0.71677710  0.64948786  0.60292329    -0.58600
C238        C  0.67734952  0.57127447  0.65118388     0.75200
C239        C  0.76270313  0.66790290  0.74231428     0.77600
Cd240      Cd  0.74583630  0.63860146  0.65761857     1.37500
O241        O  0.76678774  0.60453698  0.65352571    -0.57400
O242        O  0.76665236  0.68609407  0.71087096    -0.56200
C243        C  0.74344421  0.66754337  0.57930622     0.77500
O244        O  0.74874270  0.63634096  0.73424245    -0.58600
O245        O  0.80531773  0.65987019  0.64088645    -0.57000
O246        O  0.68096742  0.59792538  0.66365327    -0.57000
O247        O  0.77185893  0.67561939  0.59435853    -0.56200
O248        O  0.53997461  0.40778796  0.62379064    -0.57400
C249        C  0.49559884  0.31444503  0.61994135     0.75200
O250        O  0.43014988  0.33499083  0.69004014    -0.58600
C251        C  0.54097449  0.43180709  0.64045541     0.75200
C252        C  0.44789026  0.36045917  0.55818056     0.77600
Cd253      Cd  0.47840492  0.35965447  0.63652902     1.37500
O254        O  0.51926011  0.34640742  0.63034262    -0.57400
O255        O  0.44187565  0.33282657  0.57166355    -0.56200
C256        C  0.44892843  0.33774086  0.72051294     0.77500
O257        O  0.46347573  0.38607867  0.58372211    -0.58600
O258        O  0.46443385  0.30400992  0.61582658    -0.57000
O259        O  0.51220353  0.42226191  0.65548453    -0.57000
O260        O  0.48015576  0.35111361  0.71142850    -0.56200
O261        O  0.70167360  0.16091558  0.63599220    -0.57400
C262        C  0.79368162  0.19864821  0.62959816     0.75200
O263        O  0.73007869  0.13641090  0.71626711    -0.58600
C264        C  0.67035012  0.13448842  0.64532670     0.75200
C265        C  0.70923955  0.09183044  0.56263977     0.77600
Cd266      Cd  0.72616705  0.13020987  0.64057234     1.37500
O267        O  0.76527553  0.19197596  0.61690267    -0.57400
O268        O  0.74089891  0.11519100  0.57495402    -0.56200
C269        C  0.73577568  0.11534947  0.72532807     0.77500
O270        O  0.68574039  0.08229939  0.58930449    -0.58600
O271        O  0.79057076  0.17296238  0.64501741    -0.57000
O272        O  0.66501053  0.10603830  0.65257829    -0.57000
O273        O  0.73461811  0.09813336  0.69463109    -0.56200
O274        O  0.69282689  0.16069651  0.30500535    -0.57400
C275        C  0.78624658  0.19891879  0.33149052     0.75200
O276        O  0.72338407  0.09581740  0.35779114    -0.58600
C277        C  0.66239911  0.13382661  0.29269837     0.75200
C278        C  0.73386563  0.12267876  0.22199573     0.77600
Cd279      Cd  0.71990933  0.13302418  0.30678563     1.37500
O280        O  0.75843723  0.19549996  0.32757771    -0.57400
O281        O  0.73915377  0.15010090  0.23431184    -0.56200
C282        C  0.70338811  0.09409479  0.38461659     0.77500
O283        O  0.72071448  0.09826612  0.24907713    -0.58600
O284        O  0.78265514  0.17134101  0.32545113    -0.57000
O285        O  0.65870869  0.10614118  0.28638185    -0.57000
O286        O  0.68864224  0.10673867  0.37300429    -0.56200
O287        O  0.52121818  0.20319357  0.31003819    -0.57400
C288        C  0.54891295  0.14180357  0.28604534     0.75200
O289        O  0.44700523  0.09295162  0.35028372    -0.58600
C290        C  0.49347106  0.19892716  0.31868492     0.75200
C291        C  0.46239189  0.12854835  0.21479814     0.77600
Cd292      Cd  0.49046866  0.14041366  0.29893864     1.37500
O293        O  0.55306071  0.16933763  0.29507891    -0.57400
O294        O  0.49216406  0.15621107  0.22683373    -0.56200
C295        C  0.47065033  0.10541453  0.37901366     0.77500
O296        O  0.44446080  0.10448129  0.24231010    -0.58600
O297        O  0.51720769  0.11384423  0.28066254    -0.57000
O298        O  0.46497946  0.16744984  0.31995193    -0.57000
O299        O  0.50162475  0.13223874  0.36955395    -0.56200
O300        O  0.56078061  0.16767196  0.63898832    -0.57400
C301        C  0.50485666  0.20340212  0.61687622     0.75200
O302        O  0.45418820  0.09500984  0.58350463    -0.58600
C303        C  0.55432246  0.13856802  0.64572222     0.75200
C304        C  0.46672514  0.12538059  0.71673596     0.77600
Cd305      Cd  0.49863240  0.14224285  0.63496011     1.37500
O306        O  0.53111756  0.20640310  0.63082187    -0.57400
O307        O  0.49915584  0.15029039  0.71015673    -0.56200
C308        C  0.47700679  0.10799157  0.55452064     0.77500
O309        O  0.44856790  0.10606578  0.68507639    -0.58600
O310        O  0.47662743  0.17235727  0.61040306    -0.57000
O311        O  0.52208228  0.11179446  0.64988862    -0.57000
O312        O  0.50788004  0.13557128  0.56358978    -0.56200
O313        O  0.82008265  0.03227307  0.99083546    -0.57400
C314        C  0.78419043  0.92088275  0.99534685     0.75200
O315        O  0.72228425  0.94807262  0.05037727    -0.58600
C316        C  0.79893250  0.03920984  0.99058455     0.75200
C317        C  0.73599545  0.95737880  0.91887140     0.77600
Cd318      Cd  0.76856473  0.96809501  0.99924652     1.37500
O319        O  0.80977373  0.95375117  0.99908021    -0.57400
O320        O  0.76904445  0.97457815  0.92348771    -0.56200
C321        C  0.74290152  0.96421771  0.08188051     0.77500
O322        O  0.71740045  0.94197134  0.95148657    -0.58600
O323        O  0.75322782  0.91121396  0.99472826    -0.57000
O324        O  0.76642932  0.01396414  0.99540718    -0.57000
O325        O  0.77525882  0.97915631  0.07580299    -0.56200
O326        O  0.81823525  0.90044090  0.99466855    -0.57400
C327        C  0.83002962  0.81445989  0.99340361     0.75200
O328        O  0.73905457  0.79216036  0.03154045    -0.58600
C329        C  0.78859469  0.89403048  0.99164931     0.75200
C330        C  0.76619516  0.80743900  0.90256097     0.77600
Cd331      Cd  0.78900675  0.83609443  0.98674217     1.37500
O332        O  0.84712416  0.84714412  0.98591787    -0.57400
O333        O  0.79752500  0.83518055  0.91038552    -0.56200
C334        C  0.75686967  0.80365172  0.06581635     0.77500
O335        O  0.74509572  0.79468639  0.93329180    -0.58600
O336        O  0.79720081  0.79564497  0.99946094    -0.57000
O337        O  0.76142581  0.86235505  0.98529164    -0.57000
O338        O  0.78911776  0.83098818  0.06332273    -0.56200
O339        O  0.97662533  0.76806650  0.98575179    -0.57400
C340        C  0.05800374  0.75095078  0.98091895     0.75200
O341        O  0.96289914  0.67876109  0.03665980    -0.58600
C342        C  0.94331524  0.74303307  0.98522484     0.75200
C343        C  0.98008511  0.69933607  0.89992094     0.77600
Cd344      Cd  0.98834829  0.72534458  0.98343756     1.37500
O345        O  0.05289802  0.77344087  0.97948331    -0.57400
O346        O  0.99656512  0.73163282  0.90782847    -0.56200
C347        C  0.98071283  0.69996395  0.06727485     0.77500
O348        O  0.96432820  0.67817560  0.93072709    -0.58600
O349        O  0.03145589  0.71880387  0.98523035    -0.57000
O350        O  0.93258492  0.71185322  0.98310801    -0.57000
O351        O  0.99983746  0.73248748  0.05873897    -0.56200
O352        O  0.92435981  0.77811012  0.98876768    -0.57400
C353        C  0.84465609  0.79622979  0.99353395     0.75200
O354        O  0.81366561  0.70183688  0.94310087    -0.58600
C355        C  0.91695236  0.74816166  0.98721665     0.75200
C356        C  0.83153670  0.72340395  0.07375090     0.77600
Cd357      Cd  0.85968384  0.74967618  0.99059195     1.37500
O358        O  0.87692606  0.81041051  0.98734380    -0.57400
O359        O  0.86012074  0.75433836  0.06782783    -0.56200
C360        C  0.82442593  0.72021943  0.90982029     0.77500
O361        O  0.81747069  0.70375253  0.04129030    -0.58600
O362        O  0.82298214  0.76329883  0.99868625    -0.57000
O363        O  0.88461535  0.72124606  0.98757891    -0.57000
O364        O  0.85226449  0.75201072  0.91385949    -0.56200
O365        O  0.26195827  0.90359700  0.96599347    -0.57400
C366        C  0.34100711  0.01061381  0.96946646     0.75200
O367        O  0.36790450  0.94624547  0.01927081    -0.58600
C368        C  0.25906031  0.87618740  0.96997493     0.75200
C369        C  0.35861710  0.95339132  0.88925300     0.77600
Cd370      Cd  0.32729845  0.94538578  0.97040881     1.37500
O371        O  0.30891235  0.98282745  0.96774969    -0.57400
O372        O  0.33263486  0.95296807  0.89314158    -0.56200
C373        C  0.36086298  0.95562236  0.05175251     0.77500
O374        O  0.36953844  0.94902287  0.92301958    -0.58600
O375        O  0.36440335  0.00706415  0.97228106    -0.57000
O376        O  0.28744255  0.88074840  0.97504347    -0.57000
O377        O  0.33713867  0.95865699  0.04701265    -0.56200
O378        O  0.12097207  0.79133593  0.97326889    -0.57400
C379        C  0.22451789  0.84080502  0.96885593     0.75200
O380        O  0.15607634  0.73042938  0.01686290    -0.58600
C381        C  0.09246020  0.76000249  0.97692246     0.75200
C382        C  0.14284404  0.73656737  0.88798940     0.77600
Cd383      Cd  0.15640129  0.77123827  0.96902229     1.37500
O384        O  0.19603828  0.83613828  0.96461081    -0.57400
O385        O  0.13888472  0.75937665  0.89323272    -0.56200
C386        C  0.14976958  0.73989112  0.04994139     0.77500
O387        O  0.15425840  0.73066084  0.91994633    -0.58600
O388        O  0.22173827  0.81343745  0.97217348    -0.57000
O389        O  0.09440817  0.73552658  0.97641066    -0.57000
O390        O  0.14858695  0.76470710  0.04545837    -0.56200
O391        O  0.02718103  0.29024494  0.98566596    -0.57400
C392        C  0.92486609  0.24335684  0.98473396     0.75200
O393        O  0.99405818  0.35207160  0.03909495    -0.58600
C394        C  0.05638774  0.32124265  0.98412006     0.75200
C395        C  0.00356985  0.34795388  0.91240949     0.77600
Cd396      Cd  0.99333246  0.31221448  0.99054890     1.37500
O397        O  0.95262836  0.24750655  0.99336307    -0.57400
O398        O  0.99671028  0.35601335  0.94622584    -0.56200
C399        C  0.00109044  0.34316754  0.07239919     0.77500
O400        O  0.00477345  0.32300959  0.91483784    -0.58600
O401        O  0.92843622  0.27100412  0.97914481    -0.57000
O402        O  0.05563592  0.34643090  0.98704417    -0.57000
O403        O  0.00375135  0.31933330  0.06794308    -0.56200
O404        O  0.84139165  0.10220200  0.98244073    -0.57400
C405        C  0.89028331  0.20816813  0.98165448     0.75200
O406        O  0.78155305  0.13414489  0.92438806    -0.58600
C407        C  0.80952259  0.07418771  0.98496958     0.75200
C408        C  0.78827300  0.13192023  0.05618388     0.77600
Cd409      Cd  0.82222147  0.13890759  0.97747649     1.37500
O410        O  0.88724521  0.18061853  0.98424341    -0.57400
O411        O  0.81087979  0.12729215  0.05378881    -0.56200
C412        C  0.79259633  0.12802159  0.89284933     0.77500
O413        O  0.78160928  0.14052554  0.02214468    -0.58600
O414        O  0.86204034  0.20385406  0.97653364    -0.57000
O415        O  0.78561730  0.07709703  0.98282391    -0.57000
O416        O  0.81816530  0.12815322  0.90034181    -0.56200
O417        O  0.33503290  0.18511055  0.96440431    -0.57400
C418        C  0.32249808  0.27027699  0.96839075     0.75200
O419        O  0.41253041  0.29311719  0.01699720    -0.58600
C420        C  0.36472881  0.19165916  0.96760534     0.75200
C421        C  0.39112493  0.27825591  0.88600064     0.77600
Cd422      Cd  0.36435185  0.24962189  0.96854125     1.37500
O423        O  0.30590152  0.23747487  0.97424506    -0.57400
O424        O  0.35941954  0.25063846  0.89131272    -0.56200
C425        C  0.39392729  0.28218239  0.04994703     0.77500
O426        O  0.41073726  0.29148062  0.91882632    -0.58600
O427        O  0.35521040  0.28966873  0.96121900    -0.57000
O428        O  0.39195403  0.22351085  0.97253382    -0.57000
O429        O  0.36171532  0.25503051  0.04535084    -0.56200
O430        O  0.33202096  0.05347381  0.96138619    -0.57400
C431        C  0.36912975  0.16477372  0.96530935     0.75200
O432        O  0.43115472  0.13984788  0.01663444    -0.58600
C433        C  0.35252754  0.04608298  0.96772334     0.75200
C434        C  0.41387846  0.12354527  0.88118233     0.77600
Cd435      Cd  0.38443334  0.11739407  0.96267987     1.37500
O436        O  0.34354759  0.13194721  0.96125345    -0.57400
O437        O  0.38101211  0.10664017  0.88619406    -0.56200
C438        C  0.40975441  0.12381193  0.04708523     0.77500
O439        O  0.43338351  0.14005705  0.91342048    -0.58600
O440        O  0.40005906  0.17437383  0.96706035    -0.57000
O441        O  0.38528660  0.07125034  0.97179692    -0.57000
O442        O  0.37739812  0.10749130  0.03825714    -0.56200
O443        O  0.22555682  0.30272969  0.97492217    -0.57400
C444        C  0.30738418  0.28793095  0.97099203     0.75200
O445        O  0.33560483  0.38185206  0.93176377    -0.58600
C446        C  0.23199216  0.33218029  0.97202647     0.75200
C447        C  0.32095671  0.35862629  0.06088800     0.77600
Cd448      Cd  0.29074499  0.33295329  0.97703533     1.37500
O449        O  0.27469722  0.27282864  0.97542151    -0.57400
O450        O  0.29456058  0.32675796  0.05356927    -0.56200
C451        C  0.32300632  0.36481859  0.89732494     0.77500
O452        O  0.33215804  0.37914322  0.02946674    -0.58600
O453        O  0.32886838  0.32113912  0.96933688    -0.57000
O454        O  0.26407862  0.35960348  0.97167882    -0.57000
O455        O  0.29492718  0.33305152  0.89992706    -0.56200
O456        O  0.09417712  0.30574967  0.97793166    -0.57400
C457        C  0.20484194  0.33628405  0.96987971     0.75200
O458        O  0.17757139  0.39500711  0.91337490    -0.58600
C459        C  0.09020438  0.32910654  0.97874640     0.75200
C460        C  0.17243815  0.38360385  0.05197920     0.77600
Cd461      Cd  0.15863341  0.35258616  0.97003159     1.37500
O462        O  0.17178027  0.31090494  0.97318337    -0.57400
O463        O  0.15408620  0.35066665  0.04626581    -0.56200
C464        C  0.15783311  0.37180265  0.88517424     0.77500
O465        O  0.18743906  0.40279651  0.01950466    -0.58600
O466        O  0.21467490  0.36701133  0.96548553    -0.57000
O467        O  0.11728030  0.36106608  0.97467821    -0.57000
O468        O  0.14119786  0.33993024  0.89571276    -0.56200
C469        C  0.47570859  0.14038904  0.79286468    -0.19900
C470        C  0.45173743  0.12094762  0.75927077    -0.06500
C471        C  0.41506620  0.10081241  0.76676098     0.14400
C472        C  0.40386048  0.10215498  0.80677339    -0.20000
C473        C  0.42802274  0.12301411  0.83986568    -0.06500
C474        C  0.46459399  0.14173889  0.83277890     0.14400
C475        C  0.49244153  0.16355386  0.86662778    -0.23300
H476        H  0.50387150  0.15544360  0.78768917     0.15700
H477        H  0.37565086  0.08693187  0.81201213     0.15700
C478        C  0.38756595  0.07868494  0.73271887    -0.23200
H479        H  0.51950928  0.17623836  0.85519782     0.05900
H480        H  0.48751161  0.14653813  0.89365407     0.09100
H481        H  0.49215543  0.18488997  0.87718139     0.09100
H482        H  0.38941432  0.05862597  0.72123394     0.09100
H483        H  0.39162800  0.09569858  0.70616858     0.09100
H484        H  0.36026119  0.06450779  0.74436946     0.05900
C485        C  0.41261945  0.10436415  0.16378027    -0.19900
C486        C  0.44921029  0.12559399  0.17117051    -0.06500
C487        C  0.47250724  0.14505970  0.13720662     0.14400
C488        C  0.45861124  0.14371081  0.09755411    -0.20000
C489        C  0.42206965  0.12359582  0.09034927    -0.06500
C490        C  0.39864949  0.10298221  0.12399925     0.14400
C491        C  0.35893824  0.07920868  0.11875850    -0.23300
H492        H  0.39476919  0.08928846  0.18964153     0.15700
H493        H  0.47671793  0.15887164  0.07191888     0.15700
C494        C  0.51212333  0.16692880  0.14189549    -0.23200
H495        H  0.34516129  0.06491836  0.14828486     0.05900
H496        H  0.35010239  0.05909178  0.09408259     0.09100
H497        H  0.35064977  0.09501125  0.11013137     0.09100
H498        H  0.51857730  0.15049070  0.15485531     0.09100
H499        H  0.52301453  0.18981146  0.16292439     0.09100
H500        H  0.52567816  0.17760675  0.11120065     0.05900
C501        C  0.49155380  0.09503981  0.44322115    -0.19900
C502        C  0.46392425  0.09164164  0.42254591    -0.06500
C503        C  0.43531383  0.08330750  0.44643589     0.14400
C504        C  0.43808276  0.08464688  0.49077417    -0.20000
C505        C  0.46869587  0.09391507  0.51109767    -0.06500
C506        C  0.49427395  0.09616766  0.48723033     0.14400
C507        C  0.52522734  0.10108477  0.50779159    -0.23300
H508        H  0.51269805  0.09975779  0.42481883     0.15700
H509        H  0.41790036  0.08170272  0.50924772     0.15700
C510        C  0.40321463  0.07561654  0.42554855    -0.23200
H511        H  0.54003724  0.09812150  0.48465888     0.05900
H512        H  0.51551505  0.08092709  0.53261889     0.09100
H513        H  0.54412398  0.12771872  0.52195483     0.09100
H514        H  0.39044505  0.05239632  0.40440372     0.09100
H515        H  0.41096733  0.09874240  0.40695811     0.09100
H516        H  0.38339241  0.06953841  0.44901974     0.05900
C517        C  0.74755577  0.14430911  0.14821950    -0.19900
C518        C  0.74358211  0.12082385  0.17828414    -0.06500
C519        C  0.75176222  0.09892809  0.16651266     0.14400
C520        C  0.76580658  0.10291093  0.12631265    -0.20000
C521        C  0.77091730  0.12733888  0.09688819    -0.06500
C522        C  0.76068654  0.14761844  0.10777654     0.14400
C523        C  0.76480190  0.17389209  0.07772057    -0.23300
H524        H  0.74081937  0.16077998  0.15664283     0.15700
H525        H  0.77303090  0.08681984  0.11780343     0.15700
C526        C  0.74667596  0.07198008  0.19619510    -0.23200
H527        H  0.75680543  0.18842801  0.09215436     0.05900
H528        H  0.74777537  0.16004108  0.04936228     0.09100
H529        H  0.79289778  0.19352583  0.06830943     0.09100
H530        H  0.71830945  0.05230242  0.20449658     0.09100
H531        H  0.76294904  0.08511271  0.22523016     0.09100
H532        H  0.75470685  0.05749602  0.18170596     0.05900
C533        C  0.57148440  0.10918889  0.27515029    -0.19900
C534        C  0.57907625  0.14147144  0.28363148    -0.06500
C535        C  0.61466082  0.17157503  0.29218290     0.14400
C536        C  0.64095470  0.16802820  0.29356692    -0.20000
C537        C  0.63312411  0.13540903  0.28700833    -0.06500
C538        C  0.59780247  0.10563527  0.27682192     0.14400
C539        C  0.58713603  0.06980984  0.26849488    -0.23300
H540        H  0.54439003  0.08606615  0.26817388     0.15700
H541        H  0.66802104  0.19113421  0.30081597     0.15700
C542        C  0.62552488  0.20751760  0.30064129    -0.23200
H543        H  0.60173546  0.07108591  0.24105097     0.05900
H544        H  0.59291663  0.06075305  0.29677948     0.09100
H545        H  0.55838865  0.04974250  0.26124081     0.09100
H546        H  0.61267775  0.20685600  0.32963363     0.09100
H547        H  0.61807402  0.21594773  0.27330208     0.09100
H548        H  0.65457922  0.22785305  0.30562596     0.05900
C549        C  0.76900204  0.10592756  0.77505366    -0.19900
C550        C  0.74584825  0.11343573  0.76908461    -0.06500
C551        C  0.73611957  0.12288576  0.80455188     0.14400
C552        C  0.75141032  0.12667119  0.84415272    -0.20000
C553        C  0.77634268  0.12140759  0.84987140    -0.06500
C554        C  0.78451068  0.10990262  0.81478357     0.14400
C555        C  0.80960253  0.10191692  0.81837310    -0.23300
H556        H  0.77625865  0.09841030  0.74810107     0.15700
H557        H  0.74428040  0.13462390  0.87075952     0.15700
C558        C  0.70931407  0.12873536  0.80140187    -0.23200
H559        H  0.81204803  0.09252380  0.78800964     0.05900
H560        H  0.79979244  0.08091014  0.84210127     0.09100
H561        H  0.83644865  0.12608476  0.82753038     0.09100
H562        H  0.68453209  0.10550472  0.78632902     0.09100
H563        H  0.72003264  0.15282175  0.78293678     0.09100
H564        H  0.70246183  0.13244212  0.83290334     0.05900
C565        C  0.67124082  0.07428395  0.45214117    -0.19900
C566        C  0.69919958  0.08119232  0.42865249    -0.06500
C567        C  0.72562359  0.08235979  0.45006018     0.14400
C568        C  0.72599238  0.08167149  0.49444023    -0.20000
C569        C  0.70073798  0.07984954  0.51795764    -0.06500
C570        C  0.67174005  0.07393332  0.49639729     0.14400
C571        C  0.64290427  0.07063987  0.51933879    -0.23300
H572        H  0.65027397  0.07216764  0.43587060     0.15700
H573        H  0.74765525  0.08519711  0.51092534     0.15700
C574        C  0.75489709  0.08676610  0.42692019    -0.23200
H575        H  0.62253956  0.06621292  0.49726626     0.05900
H576        H  0.65436017  0.09520475  0.53724436     0.09100
H577        H  0.62929508  0.04795906  0.54127279     0.09100
H578        H  0.77160355  0.11257369  0.41060182     0.09100
H579        H  0.74339593  0.06513517  0.40361407     0.09100
H580        H  0.77233743  0.08586186  0.44868406     0.05900
C581        C  0.60638426  0.10496597  0.64000303    -0.19900
C582        C  0.64112560  0.13619196  0.64692874    -0.06500
C583        C  0.64688645  0.16783097  0.65512948     0.14400
C584        C  0.61788654  0.16737983  0.65532424    -0.20000
C585        C  0.58318722  0.13628275  0.64776288    -0.06500
C586        C  0.57736307  0.10449025  0.64019524     0.14400
C587        C  0.54100521  0.07005673  0.63108444    -0.23300
H588        H  0.60190595  0.08075799  0.63358544     0.15700
H589        H  0.62244944  0.19173913  0.66138841     0.15700
C590        C  0.68325189  0.20206187  0.66463623    -0.23200
H591        H  0.54192177  0.04852113  0.62402949     0.05900
H592        H  0.52900092  0.07289984  0.60323430     0.09100
H593        H  0.52385448  0.06186474  0.65888369     0.09100
H594        H  0.70033874  0.21084029  0.63666706     0.09100
H595        H  0.69529720  0.19858841  0.69189710     0.09100
H596        H  0.68231641  0.22344837  0.67275710     0.05900
C597        C  0.39894007  0.30674548  0.77120616    -0.19900
C598        C  0.43509145  0.32502624  0.76401429    -0.06500
C599        C  0.45680783  0.32941714  0.79823010     0.14400
C600        C  0.44143748  0.31405424  0.83729649    -0.20000
C601        C  0.40509904  0.29434193  0.84379861    -0.06500
C602        C  0.38365029  0.29141166  0.81050057     0.14400
C603        C  0.34489457  0.27300208  0.81623287    -0.23300
H604        H  0.38224229  0.30388928  0.74562198     0.15700
H605        H  0.45805418  0.31693248  0.86301845     0.15700
C606        C  0.49623825  0.35010452  0.79453350    -0.23200
H607        H  0.33288629  0.27512583  0.78769990     0.05900
H608        H  0.34152713  0.28508932  0.84298257     0.09100
H609        H  0.33018146  0.24455868  0.82230022     0.09100
H610        H  0.50904762  0.37747400  0.78442909     0.09100
H611        H  0.50172460  0.33711039  0.77170381     0.09100
H612        H  0.50871687  0.35180480  0.82505683     0.05900
C613        C  0.48111973  0.26127367  0.58623268    -0.19900
C614        C  0.50309117  0.28980821  0.61396780    -0.06500
C615        C  0.52916374  0.29209629  0.63799791     0.14400
C616        C  0.53040740  0.26431583  0.63621726    -0.20000
C617        C  0.50635170  0.23433506  0.61117262    -0.06500
C618        C  0.48254898  0.23365584  0.58417254     0.14400
C619        C  0.45870131  0.20420599  0.55293725    -0.23300
H620        H  0.46188001  0.26007230  0.56678585     0.15700
H621        H  0.54914823  0.26523428  0.65632700     0.15700
C622        C  0.55446502  0.32260549  0.66734131    -0.23200
H623        H  0.44442999  0.20984914  0.53194496     0.05900
H624        H  0.43838401  0.17927514  0.56960749     0.09100
H625        H  0.47470472  0.20077894  0.53272785     0.09100
H626        H  0.53946918  0.32466320  0.69123178     0.09100
H627        H  0.57134373  0.34743247  0.64905286     0.09100
H628        H  0.57230181  0.31941648  0.68441373     0.05900
C629        C  0.76647897  0.65814751  0.81837160    -0.19900
C630        C  0.77507759  0.68213449  0.78606794    -0.06500
C631        C  0.79763341  0.71856929  0.79597707     0.14400
C632        C  0.81281060  0.72987872  0.83666732    -0.20000
C633        C  0.80564589  0.70592451  0.86827809    -0.06500
C634        C  0.78113655  0.66937226  0.85916404     0.14400
C635        C  0.77081936  0.64178362  0.89156128    -0.23300
H636        H  0.74866276  0.63016065  0.81146612     0.15700
H637        H  0.83070823  0.75784548  0.84372903     0.15700
C638        C  0.80643323  0.74589320  0.76405134    -0.23200
H639        H  0.75206479  0.61467025  0.87839961     0.05900
H640        H  0.75749536  0.64339576  0.91830173     0.09100
H641        H  0.79468388  0.64571412  0.90307219     0.09100
H642        H  0.78171770  0.74029102  0.75254528     0.09100
H643        H  0.82071627  0.74582769  0.73722631     0.09100
H644        H  0.82367816  0.77287260  0.77776127     0.05900
C645        C  0.60277335  0.47659852  0.61824090    -0.19900
C646        C  0.57452383  0.46871979  0.64197835    -0.06500
C647        C  0.57978804  0.49565773  0.66684141     0.14400
C648        C  0.61356279  0.52894709  0.66873662    -0.20000
C649        C  0.64210577  0.53615213  0.64636126    -0.06500
C650        C  0.63631019  0.50975401  0.61990211     0.14400
C651        C  0.66486154  0.51605108  0.59254499    -0.23300
H652        H  0.59878500  0.45649277  0.59832016     0.15700
H653        H  0.61784442  0.54925002  0.68852942     0.15700
C654        C  0.55052860  0.48979261  0.69201905    -0.23200
H655        H  0.65461179  0.49309095  0.57188668     0.05900
H656        H  0.68627995  0.52057844  0.61247612     0.09100
H657        H  0.67574496  0.53911384  0.57182429     0.09100
H658        H  0.54062617  0.46862145  0.71551480     0.09100
H659        H  0.52859721  0.48247217  0.67058598     0.09100
H660        H  0.55971479  0.51390297  0.70944507     0.05900
C661        C  0.45685914  0.33751381  0.14227567    -0.19900
C662        C  0.43303088  0.32956761  0.17412406    -0.06500
C663        C  0.39642832  0.30769652  0.16386866     0.14400
C664        C  0.38477366  0.29311124  0.12309342    -0.20000
C665        C  0.40854674  0.30005397  0.09174913    -0.06500
C666        C  0.44529909  0.32350472  0.10133900     0.14400
C667        C  0.47272273  0.33351148  0.06919267    -0.23300
H668        H  0.48496352  0.35464254  0.14955230     0.15700
H669        H  0.35665548  0.27590422  0.11572074     0.15700
C670        C  0.36925620  0.29879618  0.19569230    -0.23200
H671        H  0.49999260  0.35131528  0.08268767     0.05900
H672        H  0.47168870  0.34766258  0.04258200     0.09100
H673        H  0.46792919  0.30953176  0.05740916     0.09100
H674        H  0.37472146  0.32329485  0.20664099     0.09100
H675        H  0.36990564  0.28485161  0.22288918     0.09100
H676        H  0.34199571  0.28136282  0.18211880     0.05900
C677        C  0.46060053  0.39330187  0.44586642    -0.19900
C678        C  0.43632946  0.36124875  0.42435815    -0.06500
C679        C  0.41094330  0.33061325  0.44780560     0.14400
C680        C  0.41287673  0.33208506  0.49209666    -0.20000
C681        C  0.44009422  0.36317286  0.51356725    -0.06500
C682        C  0.46345425  0.39457595  0.49010045     0.14400
C683        C  0.49391205  0.42869889  0.51080019    -0.23300
H684        H  0.48002112  0.41684194  0.42793628     0.15700
H685        H  0.39461003  0.30819300  0.50994017     0.15700
C686        C  0.38226045  0.29607043  0.42641387    -0.23200
H687        H  0.50941394  0.45044311  0.48763939     0.05900
H688        H  0.51216767  0.42539720  0.52632181     0.09100
H689        H  0.48383657  0.43666278  0.53468246     0.09100
H690        H  0.39377336  0.28579988  0.40954196     0.09100
H691        H  0.36732967  0.29978295  0.40375655     0.09100
H692        H  0.36318511  0.27569796  0.44948729     0.05900
C693        C  0.52236597  0.26178311  0.30695569    -0.19900
C694        C  0.49413940  0.22927944  0.32437736    -0.06500
C695        C  0.46651066  0.22621860  0.34414558     0.14400
C696        C  0.46642568  0.25471822  0.34267746    -0.20000
C697        C  0.49336834  0.28640536  0.32257049    -0.06500
C698        C  0.52253455  0.29047201  0.30601657     0.14400
C699        C  0.55342064  0.32431076  0.28602187    -0.23300
H700        H  0.54387585  0.26442989  0.29248348     0.15700
H701        H  0.44466480  0.25191273  0.35664463     0.15700
C702        C  0.43712936  0.19333847  0.36718631    -0.23200
H703        H  0.57350201  0.32237964  0.27451548     0.05900
H704        H  0.56674868  0.34602591  0.30956272     0.09100
H705        H  0.54412642  0.33079941  0.25859565     0.09100
H706        H  0.44855192  0.18638164  0.39121055     0.09100
H707        H  0.42009150  0.17118130  0.34466494     0.09100
H708        H  0.41981773  0.19702228  0.38378665     0.05900
C709        C  0.78982349  0.67416253  0.12236964    -0.19900
C710        C  0.81487256  0.71062056  0.11604102    -0.06500
C711        C  0.82200772  0.73354521  0.14944566     0.14400
C712        C  0.80508732  0.71928219  0.18838303    -0.20000
C713        C  0.78100705  0.68272117  0.19527525    -0.06500
C714        C  0.77283078  0.65984321  0.16111153     0.14400
C715        C  0.74670558  0.62021630  0.16475932    -0.23300
H716        H  0.78377999  0.65644331  0.09672211     0.15700
H717        H  0.81128465  0.73704095  0.21401035     0.15700
C718        C  0.84691830  0.77304068  0.14441019    -0.23200
H719        H  0.74332140  0.60692641  0.13459629     0.05900
H720        H  0.72033537  0.61162440  0.17338737     0.09100
H721        H  0.75614991  0.61118359  0.18872551     0.09100
H722        H  0.83782173  0.78047782  0.11779781     0.09100
H723        H  0.87413033  0.78275022  0.13861868     0.09100
H724        H  0.84818543  0.78660894  0.17315923     0.05900
C725        C  0.70963512  0.64843109  0.51211277    -0.19900
C726        C  0.74058801  0.67480268  0.53466146    -0.06500
C727        C  0.76975137  0.70379763  0.51240582     0.14400
C728        C  0.76891817  0.70327531  0.46805721    -0.20000
C729        C  0.73941588  0.67479673  0.44545032    -0.06500
C730        C  0.70860059  0.64799756  0.46782353     0.14400
C731        C  0.67550764  0.61723395  0.44553067    -0.23300
H732        H  0.68703764  0.62634640  0.52908701     0.15700
H733        H  0.79220815  0.72424825  0.45095229     0.15700
C734        C  0.80186914  0.73517228  0.53513630    -0.23200
H735        H  0.65410854  0.59887822  0.46804312     0.05900
H736        H  0.68129311  0.60211347  0.42752793     0.09100
H737        H  0.66539259  0.62688286  0.42366330     0.09100
H738        H  0.81625591  0.72773593  0.55211805     0.09100
H739        H  0.79357527  0.74575908  0.55785555     0.09100
H740        H  0.82068182  0.75661238  0.51289301     0.05900
C741        C  0.61720994  0.53302708  0.29496872    -0.19900
C742        C  0.64263430  0.53853710  0.32348180    -0.06500
C743        C  0.63356793  0.51006953  0.34893088     0.14400
C744        C  0.60025292  0.47688707  0.34362301    -0.20000
C745        C  0.57540016  0.47093652  0.31376770    -0.06500
C746        C  0.58379177  0.49976308  0.28973810     0.14400
C747        C  0.55831896  0.49600090  0.25793134    -0.23300
H748        H  0.62375344  0.55471982  0.27581827     0.15700
H749        H  0.59378100  0.45524997  0.36285312     0.15700
C750        C  0.65840322  0.51393715  0.38197654    -0.23200
H751        H  0.56961384  0.52136975  0.24215036     0.05900
H752        H  0.53380437  0.48710309  0.27385549     0.09100
H753        H  0.55183270  0.47679406  0.23309942     0.09100
H754        H  0.66626671  0.53494827  0.40478604     0.09100
H755        H  0.68217979  0.52031393  0.36683774     0.09100
H756        H  0.64589775  0.48926475  0.40012282     0.05900
C757        C  0.99671967  0.39003481  0.16466399    -0.19900
C758        C  0.01249680  0.38463286  0.19747525    -0.06500
C759        C  0.02719583  0.36817040  0.18784859     0.14400
C760        C  0.02351424  0.35560591  0.14666244    -0.20000
C761        C  0.00609718  0.35944460  0.11439280    -0.06500
C762        C  0.99348140  0.37798509  0.12343743     0.14400
C763        C  0.97556521  0.38439458  0.09047980    -0.23300
H764        H  0.98593618  0.40321573  0.17152044     0.15700
H765        H  0.03408079  0.34225966  0.13974277     0.15700
C766        C  0.04595835  0.36280435  0.22071261    -0.23200
H767        H  0.96665446  0.39850510  0.10364872     0.05900
H768        H  0.95185876  0.35889170  0.07747337     0.09100
H769        H  0.99432240  0.40094717  0.06482119     0.09100
H770        H  0.02761450  0.34610381  0.24660514     0.09100
H771        H  0.06928946  0.38870987  0.23343864     0.09100
H772        H  0.05556495  0.34939843  0.20741181     0.05900
C773        C  0.86160680  0.29688406  0.35062018    -0.19900
C774        C  0.89104573  0.29890985  0.34227657    -0.06500
C775        C  0.88572549  0.26722460  0.33615024     0.14400
C776        C  0.85122309  0.23509106  0.33544627    -0.20000
C777        C  0.82161348  0.23334355  0.34005401    -0.06500
C778        C  0.82697962  0.26463601  0.34952930     0.14400
C779        C  0.79672837  0.26469197  0.35815123    -0.23300
H780        H  0.86551978  0.32089475  0.35654828     0.15700
H781        H  0.84739469  0.21116382  0.32928987     0.15700
C782        C  0.91579183  0.26651209  0.32938495    -0.23200
H783        H  0.80625346  0.29126361  0.36740672     0.05900
H784        H  0.78063530  0.24640174  0.38441744     0.09100
H785        H  0.77995412  0.25671405  0.32942171     0.09100
H786        H  0.93482021  0.27948589  0.35632874     0.09100
H787        H  0.92933928  0.27994672  0.29945108     0.09100
H788        H  0.90641278  0.23919055  0.32706366     0.05900
C789        C  0.95704864  0.65060200  0.11711074    -0.19900
C790        C  0.97993716  0.68712151  0.11034503    -0.06500
C791        C  0.00256067  0.70986744  0.14400509     0.14400
C792        C  0.00132849  0.69535173  0.18298575    -0.20000
C793        C  0.97818996  0.65883170  0.18972921    -0.06500
C794        C  0.95587169  0.63611725  0.15596223     0.14400
C795        C  0.93108090  0.59647595  0.15979694    -0.23300
H796        H  0.93987805  0.63298239  0.09157826     0.15700
H797        H  0.01833346  0.71283199  0.20870026     0.15700
C798        C  0.02833708  0.74942918  0.13960876    -0.23200
H799        H  0.91772698  0.58322783  0.12933059     0.05900
H800        H  0.90996195  0.58769315  0.18267018     0.09100
H801        H  0.94612752  0.58757609  0.16998553     0.09100
H802        H  0.01381882  0.75936444  0.13184824     0.09100
H803        H  0.04771340  0.75704334  0.11465026     0.09100
H804        H  0.04362696  0.76267265  0.16921754     0.05900
C805        C  0.88175667  0.64097767  0.36143931    -0.19900
C806        C  0.87488808  0.61222986  0.33988638    -0.06500
C807        C  0.84077728  0.58648984  0.32191913     0.14400
C808        C  0.81548444  0.59149395  0.32387412    -0.20000
C809        C  0.82352896  0.62181532  0.34239846    -0.06500
C810        C  0.85679524  0.64630234  0.36270045     0.14400
C811        C  0.86653330  0.67823958  0.38576420    -0.23300
H812        H  0.90743498  0.66027029  0.37621942     0.15700
H813        H  0.78981076  0.57241206  0.30887778     0.15700
C814        C  0.83113758  0.55459805  0.29894431    -0.23200
H815        H  0.89250335  0.69279840  0.40239629     0.05900
H816        H  0.84625241  0.67001470  0.40971137     0.09100
H817        H  0.86866558  0.69684237  0.36317844     0.09100
H818        H  0.83351422  0.53837584  0.32072030     0.09100
H819        H  0.84885643  0.56299321  0.27167939     0.09100
H820        H  0.80346663  0.53764383  0.28662343     0.05900
C821        C  0.00947700  0.54648684  0.32365257    -0.19900
C822        C  0.97644921  0.53661759  0.31152378    -0.06500
C823        C  0.94802444  0.50072552  0.30248953     0.14400
C824        C  0.95344051  0.47592601  0.30584319    -0.20000
C825        C  0.98630981  0.48572010  0.31839848    -0.06500
C826        C  0.01470440  0.52154332  0.32777615     0.14400
C827        C  0.05005042  0.53358972  0.34392639    -0.23300
H828        H  0.03118093  0.57386609  0.33123911     0.15700
H829        H  0.93172167  0.44857104  0.29853497     0.30100
C830        C  0.91199697  0.48815166  0.28862676    -0.23200
H831        H  0.04631724  0.51888803  0.37299582     0.05900
H832        H  0.06291058  0.52916476  0.31959856     0.09100
H833        H  0.06838180  0.56214483  0.35180582     0.09100
H834        H  0.91448468  0.50289701  0.26023254     0.09100
H835        H  0.89961589  0.49194138  0.31445284     0.09100
H836        H  0.89380130  0.45965479  0.28049351     0.05900
C837        C  0.99599625  0.39270188  0.81999195    -0.19900
C838        C  0.01593383  0.39182365  0.78934751    -0.06500
C839        C  0.03469386  0.37974640  0.80087569     0.14400
C840        C  0.03140653  0.36718933  0.84199015    -0.20000
C841        C  0.00967573  0.36609556  0.87179537    -0.06500
C842        C  0.99253500  0.37999951  0.86092087     0.14400
C843        C  0.96894049  0.37980084  0.89126189    -0.23300
H844        H  0.98181889  0.40222514  0.81136237     0.15700
H845        H  0.04501627  0.35705019  0.85051038     0.15700
C846        C  0.05641123  0.37792979  0.76960055    -0.23200
H847        H  0.95652059  0.39031372  0.87666152     0.05900
H848        H  0.98468089  0.39657109  0.91903596     0.09100
H849        H  0.94732928  0.35242263  0.90160395     0.09100
H850        H  0.07794544  0.40466901  0.75754401     0.09100
H851        H  0.03931057  0.36040501  0.74289532     0.09100
H852        H  0.06875856  0.36729756  0.78404500     0.05900
C853        C  0.05722958  0.45209277  0.51533227    -0.19900
C854        C  0.04523741  0.42178886  0.53830273    -0.06500
C855        C  0.03628189  0.39204259  0.51600117     0.14400
C856        C  0.03573732  0.39220577  0.47173111    -0.20000
C857        C  0.04299434  0.42071786  0.44898309    -0.06500
C858        C  0.05551295  0.45177032  0.47106718     0.14400
C859        C  0.06357818  0.48337778  0.44883261    -0.23300
H860        H  0.06487141  0.47523804  0.53213741     0.15700
H861        H  0.02678486  0.36862672  0.45470905     0.15700
C862        C  0.02477891  0.35898183  0.53798931    -0.23200
H863        H  0.07288182  0.50515682  0.47115019     0.05900
H864        H  0.03934296  0.47589141  0.43266258     0.09100
H865        H  0.08463237  0.49366478  0.42533920     0.09100
H866        H  0.99932302  0.34627159  0.55422795     0.09100
H867        H  0.04546304  0.36546121  0.56105128     0.09100
H868        H  0.02058793  0.33936601  0.51545411     0.05900
C869        C  0.85903792  0.23762430  0.63644788    -0.19900
C870        C  0.82879404  0.23447615  0.62814427    -0.06500
C871        C  0.83287085  0.26552840  0.62212297     0.14400
C872        C  0.86674798  0.29850635  0.62562576    -0.20000
C873        C  0.89679749  0.30163955  0.63532892    -0.06500
C874        C  0.89283518  0.27056369  0.64036352     0.14400
C875        C  0.92355313  0.27143518  0.65136668    -0.23300
H876        H  0.85616919  0.21400810  0.64095358     0.15700
H877        H  0.86963625  0.32217260  0.62151454     0.15700
C878        C  0.80182755  0.26457363  0.61344897    -0.23200
H879        H  0.91509754  0.24455053  0.65519901     0.05900
H880        H  0.93599303  0.28570579  0.68163360     0.09100
H881        H  0.94332959  0.28450922  0.62583173     0.09100
H882        H  0.78283479  0.25134637  0.63978995     0.09100
H883        H  0.78849906  0.25036644  0.58342031     0.09100
H884        H  0.81012888  0.29144679  0.61038088     0.05900
C885        C  0.99197726  0.69512272  0.78197807    -0.19900
C886        C  0.98550467  0.66296774  0.77895329    -0.06500
C887        C  0.97702122  0.64276408  0.81597053     0.14400
C888        C  0.97523223  0.65534111  0.85461200    -0.20000
C889        C  0.98098319  0.68717978  0.85750164    -0.06500
C890        C  0.98933743  0.70727579  0.82040078     0.14400
C891        C  0.99408805  0.74079303  0.82030251    -0.23300
H892        H  0.99779431  0.71032288  0.75359116     0.15700
H893        H  0.96932453  0.64007338  0.88297304     0.15700
C894        C  0.97013726  0.60813691  0.81542096    -0.23200
H895        H  0.99763419  0.75126722  0.78792751     0.05900
H896        H  0.01799544  0.76150744  0.83897268     0.09100
H897        H  0.97030807  0.73567234  0.83359480     0.09100
H898        H  0.99287034  0.61175337  0.80119791     0.09100
H899        H  0.94551715  0.58817762  0.79725938     0.09100
H900        H  0.96654115  0.59747507  0.84769545     0.05900
C901        C  0.88415700  0.64731822  0.61968784    -0.19900
C902        C  0.87787174  0.61766639  0.63792920    -0.06500
C903        C  0.84411941  0.59072227  0.65466158     0.14400
C904        C  0.81853106  0.59534447  0.65509264    -0.20000
C905        C  0.82561750  0.62605244  0.63910724    -0.06500
C906        C  0.85858674  0.65185678  0.61980149     0.14400
C907        C  0.86732279  0.68419483  0.59887728    -0.23300
H908        H  0.90961846  0.66754769  0.60583419     0.15700
H909        H  0.79317347  0.57522394  0.66918251     0.15700
C910        C  0.83502496  0.55760210  0.67341673    -0.23200
H911        H  0.89338020  0.70004647  0.58311492     0.05900
H912        H  0.86866849  0.70148919  0.62267593     0.09100
H913        H  0.84693905  0.67627046  0.57443606     0.09100
H914        H  0.85330331  0.56437977  0.70017028     0.09100
H915        H  0.83703912  0.54287920  0.64897230     0.09100
H916        H  0.80759073  0.53979099  0.68553896     0.05900
C917        C  0.01696457  0.63196179  0.46247837    -0.19900
C918        C  0.01645065  0.65621794  0.43972485    -0.06500
C919        C  0.02100798  0.68392606  0.46147459     0.14400
C920        C  0.02086572  0.68364004  0.50594412    -0.20000
C921        C  0.01613764  0.65617241  0.52834395    -0.06500
C922        C  0.01636290  0.63135482  0.50651634     0.14400
C923        C  0.01356216  0.60268241  0.52956222    -0.23300
H924        H  0.01439222  0.61126015  0.44563690     0.15700
H925        H  0.02092324  0.70276683  0.52290808     0.15700
C926        C  0.02295458  0.71187012  0.43804190    -0.23200
H927        H  0.01551007  0.58639514  0.50771579     0.05900
H928        H  0.98780528  0.58486191  0.54577144     0.09100
H929        H  0.03531460  0.61463418  0.55328772     0.09100
H930        H  0.99832243  0.69961796  0.41918865     0.09100
H931        H  0.04600134  0.72619627  0.41669917     0.09100
H932        H  0.02621938  0.73136212  0.45991629     0.05900
C933        C  0.95851150  0.48189981  0.64084264    -0.19900
C934        C  0.98858480  0.48946823  0.66073821    -0.06500
C935        C  0.01377107  0.52305550  0.67977181     0.14400
C936        C  0.00798647  0.54764804  0.67828229    -0.20000
C937        C  0.97781793  0.53992007  0.65855927    -0.06500
C938        C  0.95278094  0.50649388  0.63930288     0.14400
C939        C  0.92045083  0.49661437  0.61594947    -0.23300
H940        H  0.93912687  0.45635207  0.62593701     0.15700
H941        H  0.02732962  0.57329017  0.69295651     0.15700
C942        C  0.04670325  0.53348813  0.70201659    -0.23200
H943        H  0.90483524  0.47001536  0.60135322     0.05900
H944        H  0.92855515  0.51577876  0.59025317     0.09100
H945        H  0.90276786  0.49617435  0.63802050     0.09100
H946        H  0.06325559  0.53245094  0.67974550     0.09100
H947        H  0.06319738  0.56076765  0.71477796     0.09100
H948        H  0.03935745  0.51551737  0.72888585     0.05900
C949        C  0.75577000  0.98771498  0.15548843    -0.19900
C950        C  0.73050359  0.96685875  0.12331263    -0.06500
C951        C  0.69453327  0.95046227  0.13113836     0.14400
C952        C  0.68509520  0.95460590  0.17066559    -0.20000
C953        C  0.71001149  0.97392644  0.20347746    -0.06500
C954        C  0.74609806  0.99127581  0.19541884     0.14400
C955        C  0.77439722  0.01245654  0.22892956    -0.23300
H956        H  0.78354548  0.00102558  0.14966321     0.15700
H957        H  0.65738087  0.94149783  0.17640192     0.15700
C958        C  0.66546037  0.92785545  0.09873600    -0.23200
H959        H  0.80104784  0.02392806  0.21709979     0.05900
H960        H  0.76879055  0.99531465  0.25611856     0.09100
H961        H  0.77533757  0.03454985  0.23951842     0.09100
H962        H  0.66434507  0.90536153  0.08960277     0.09100
H963        H  0.67016926  0.94384267  0.07062962     0.09100
H964        H  0.63901071  0.91666567  0.11099624     0.05900
C965        C  0.39979675  0.98811264  0.16329743    -0.19900
C966        C  0.41010088  0.96767398  0.17270383    -0.06500
C967        C  0.40653368  0.94545664  0.14053324     0.14400
C968        C  0.39131429  0.94312392  0.10141255    -0.20000
C969        C  0.37893597  0.96174204  0.09308223    -0.06500
C970        C  0.38424534  0.98544136  0.12411689     0.14400
C971        C  0.37422409  0.00848010  0.11615226    -0.23300
H972        H  0.40292553  0.00561469  0.18723708     0.15700
H973        H  0.38792144  0.92548831  0.07742370     0.15700
C974        C  0.41798934  0.92344124  0.14672645    -0.23200
H975        H  0.38222073  0.02680717  0.14287805     0.05900
H976        H  0.34512194  0.99200761  0.11203854     0.09100
H977        H  0.38761596  0.02462323  0.08749596     0.09100
H978        H  0.40161126  0.90311485  0.17114109     0.09100
H979        H  0.44642201  0.94059045  0.15599030     0.09100
H980        H  0.41471760  0.90928769  0.11743406     0.05900
C981        C  0.55204252  0.98459274  0.32589458    -0.19900
C982        C  0.51937825  0.95456642  0.31035340    -0.06500
C983        C  0.51609902  0.92500737  0.29769171     0.14400
C984        C  0.54575300  0.92657029  0.30051827    -0.20000
C985        C  0.57868703  0.95682928  0.31548597    -0.06500
C986        C  0.58174141  0.98622845  0.32874596     0.14400
C987        C  0.61567502  0.01908526  0.34700449    -0.23300
H988        H  0.55417018  0.00684529  0.33653756     0.15700
H989        H  0.54319927  0.90391727  0.29052497     0.15700
C990        C  0.48187474  0.89215192  0.27997913    -0.23200
H991        H  0.61244452  0.03844400  0.35753237     0.05900
H992        H  0.63663085  0.03225900  0.32284428     0.09100
H993        H  0.62428287  0.01224478  0.37484715     0.09100
H994        H  0.47315674  0.89897225  0.25224474     0.09100
H995        H  0.46112103  0.87936559  0.30437493     0.09100
H996        H  0.48480650  0.87255447  0.26956926     0.05900
C997        C  0.74467285  0.98059505  0.84626319    -0.19900
C998        C  0.72091784  0.95720633  0.87762111    -0.06500
C999        C  0.68410084  0.93607041  0.86919936     0.14400
C1000       C  0.67239773  0.93797018  0.82947307    -0.20000
C1001       C  0.69616209  0.96044727  0.79761267    -0.06500
C1002       C  0.73294040  0.98269757  0.80663279     0.14400
C1003       C  0.76017168  0.00832522  0.77481691    -0.23300
H1004       H  0.77294240  0.99760752  0.85272466     0.15700
H1005       H  0.64417703  0.92118531  0.82311699     0.15700
C1006       C  0.65669514  0.91106410  0.90128558    -0.23200
H1007       H  0.78758472  0.02372428  0.78765775     0.05900
H1008       H  0.75602182  0.02736039  0.76566341     0.09100
H1009       H  0.75814933  0.99387972  0.74657642     0.09100
H1010       H  0.65919190  0.92601385  0.92925649     0.09100
H1011       H  0.66012715  0.89157075  0.91081870     0.09100
H1012       H  0.62930317  0.89615813  0.88859526     0.05900
C1013       C  0.71009170  0.98802860  0.52717778    -0.19900
C1014       C  0.68244158  0.98476316  0.54638996    -0.06500
C1015       C  0.66037392  0.98797990  0.52157771     0.14400
C1016       C  0.66403788  0.99062725  0.47774451    -0.20000
C1017       C  0.68915927  0.99006298  0.45804441    -0.06500
C1018       C  0.71365765  0.99055851  0.48302757     0.14400
C1019       C  0.74164488  0.99091499  0.46308410    -0.23300
H1020       H  0.72708066  0.98569672  0.54634771     0.15700
H1021       H  0.64571478  0.99095928  0.45845774     0.15700
C1022       C  0.63265668  0.98824518  0.54118985    -0.23200
H1023       H  0.75814174  0.99052217  0.48714871     0.05900
H1024       H  0.75932708  0.01519199  0.44401633     0.09100
H1025       H  0.72906703  0.96744742  0.44243260     0.09100
H1026       H  0.64567971  0.01008450  0.56440560     0.09100
H1027       H  0.61236243  0.96289955  0.55712074     0.09100
H1028       H  0.61880687  0.99241787  0.51727520     0.05900
C1029       C  0.41168877  0.95656905  0.79882577    -0.19900
C1030       C  0.40098915  0.96652044  0.76484371    -0.06500
C1031       C  0.37774246  0.97377997  0.77240449     0.14400
C1032       C  0.36509211  0.96989555  0.81337192    -0.20000
C1033       C  0.37491163  0.95886459  0.84729375    -0.06500
C1034       C  0.39928887  0.95288307  0.83984571     0.14400
C1035       C  0.41192677  0.94179536  0.87435804    -0.23300
H1036       H  0.42947194  0.95093675  0.79303283     0.15700
H1037       H  0.34679677  0.97497324  0.81870194     0.15700
C1038       C  0.36477164  0.98391192  0.73716938    -0.23200
H1039       H  0.43039385  0.93776598  0.86241518     0.05900
H1040       H  0.38903809  0.91652354  0.88827805     0.09100
H1041       H  0.42633375  0.96255519  0.89907237     0.09100
H1042       H  0.35053436  0.96269716  0.71296720     0.09100
H1043       H  0.38759378  0.00879004  0.72258320     0.09100
H1044       H  0.34633205  0.98815302  0.74857788     0.05900
C1045       C  0.41943805  0.00016152  0.44572575    -0.19900
C1046       C  0.44845824  0.00646601  0.42579929    -0.06500
C1047       C  0.47755059  0.01605003  0.45107134     0.14400
C1048       C  0.47411746  0.01307258  0.49513020    -0.20000
C1049       C  0.44277692  0.00153151  0.51487597    -0.06500
C1050       C  0.41631797  0.99795418  0.48986567     0.14400
C1051       C  0.38403186  0.99039179  0.50879563    -0.23300
H1052       H  0.39777686  0.99447309  0.42646502     0.15700
H1053       H  0.49540056  0.01772579  0.51404847     0.15700
C1054       C  0.51149019  0.02736967  0.43218789    -0.23200
H1055       H  0.36781052  0.99116399  0.48465515     0.05900
H1056       H  0.39226208  0.01060184  0.53306335     0.09100
H1057       H  0.36694590  0.96374478  0.52301172     0.09100
H1058       H  0.52278174  0.05057571  0.41157027     0.09100
H1059       H  0.50650363  0.00545838  0.41369906     0.09100
H1060       H  0.53168315  0.03510257  0.45683819     0.05900
C1061       C  0.54303981  0.97930342  0.65516783    -0.19900
C1062       C  0.50835081  0.94855764  0.66258000    -0.06500
C1063       C  0.50282206  0.91838324  0.67843310     0.14400
C1064       C  0.53197009  0.91944978  0.68476583    -0.20000
C1065       C  0.56657180  0.94969940  0.67566067    -0.06500
C1066       C  0.57221231  0.98034641  0.66133590     0.14400
C1067       C  0.60850044  0.01389720  0.65090836    -0.23300
H1068       H  0.54731385  0.00249875  0.64336145     0.15700
H1069       H  0.52755795  0.89608740  0.69632035     0.15700
C1070       C  0.46648966  0.88511611  0.68948320    -0.23200
H1071       H  0.60748190  0.03439282  0.63830029     0.05900
H1072       H  0.62059447  0.00860712  0.62653178     0.09100
H1073       H  0.62555380  0.02474167  0.67967992     0.09100
H1074       H  0.44963772  0.87308360  0.66065822     0.09100
H1075       H  0.45407471  0.89119100  0.71245332     0.09100
H1076       H  0.46758845  0.86514713  0.70398329     0.05900
C1077       C  0.36666775  0.40773732  0.10846874    -0.19900
C1078       C  0.33825733  0.37158174  0.10351493    -0.06500
C1079       C  0.32794393  0.34918180  0.13899095     0.14400
C1080       C  0.34486890  0.36391427  0.17835701    -0.20000
C1081       C  0.37161015  0.40034561  0.18358291    -0.06500
C1082       C  0.38344005  0.42238562  0.14768051     0.14400
C1083       C  0.41418869  0.46140902  0.15008860    -0.23300
H1084       H  0.37564109  0.42506439  0.08141616     0.15700
H1085       H  0.33608888  0.34696837  0.20571508     0.15700
C1086       C  0.29900718  0.30982782  0.13620321    -0.23200
H1087       H  0.42188066  0.47372598  0.11836811     0.05900
H1088       H  0.43758102  0.46586127  0.16455754     0.09100
H1089       H  0.40710991  0.47508202  0.16883905     0.09100
H1090       H  0.30601745  0.29854283  0.11270599     0.09100
H1091       H  0.27354007  0.30362746  0.12719241     0.09100
H1092       H  0.29504919  0.29672595  0.16681713     0.05900
C1093       C  0.69321405  0.75317937  0.15644892    -0.19900
C1094       C  0.71578042  0.75657903  0.18805398    -0.06500
C1095       C  0.75152592  0.77375068  0.17813079     0.14400
C1096       C  0.76379231  0.78810996  0.13766608    -0.20000
C1097       C  0.74146303  0.78594216  0.10683289    -0.06500
C1098       C  0.70552849  0.76779281  0.11629439     0.14400
C1099       C  0.68026925  0.76517821  0.08521341    -0.23300
H1100       H  0.66572934  0.73978010  0.16348340     0.15700
H1101       H  0.79126023  0.80157212  0.13019025     0.15700
C1102       C  0.77724620  0.77814057  0.21002372    -0.23200
H1103       H  0.65376888  0.75184664  0.09897567     0.05900
H1104       H  0.67653468  0.74964064  0.05722202     0.09100
H1105       H  0.69082278  0.79199227  0.07537483     0.09100
H1106       H  0.76798737  0.75189390  0.22041142     0.09100
H1107       H  0.77969336  0.79343216  0.23756400     0.09100
H1108       H  0.80407589  0.79259077  0.19674584     0.05900
C1109       C  0.69324123  0.87010537  0.35137211    -0.19900
C1110       C  0.66066699  0.86281267  0.34437702    -0.06500
C1111       C  0.62985125  0.82737207  0.33791976     0.14400
C1112       C  0.63302229  0.80093201  0.33589906    -0.20000
C1113       C  0.66598932  0.80861389  0.33988960    -0.06500
C1114       C  0.69644383  0.84371704  0.34918248     0.14400
C1115       C  0.73260316  0.85413113  0.35639108    -0.23300
H1116       H  0.71685096  0.89700733  0.35733630     0.15700
H1117       H  0.60943047  0.77400249  0.32976573     0.15700
C1118       C  0.59355330  0.81688160  0.33235515    -0.23200
H1119       H  0.75275385  0.88243622  0.36491011     0.05900
H1120       H  0.74165616  0.84979427  0.32721911     0.09100
H1121       H  0.73165478  0.83854029  0.38272144     0.09100
H1122       H  0.59255337  0.82903825  0.30338406     0.09100
H1123       H  0.58714197  0.82530906  0.36030579     0.09100
H1124       H  0.57263299  0.78788876  0.32905431     0.05900
C1125       C  0.53903319  0.55328236  0.31026633    -0.19900
C1126       C  0.51022435  0.54713783  0.28880753    -0.06500
C1127       C  0.51541661  0.57477356  0.26564252     0.14400
C1128       C  0.54835876  0.60864011  0.26796326    -0.20000
C1129       C  0.57649331  0.61542159  0.29189766    -0.06500
C1130       C  0.57219824  0.58713464  0.31212585     0.14400
C1131       C  0.60165697  0.59262034  0.33765642    -0.23300
H1132       H  0.53511601  0.53194130  0.32740980     0.15700
H1133       H  0.55203300  0.63015877  0.25144515     0.15700
C1134       C  0.48669612  0.56864975  0.23768946    -0.23200
H1135       H  0.59314240  0.56777494  0.35239536     0.05900
H1136       H  0.61043498  0.61204302  0.36327075     0.09100
H1137       H  0.62430868  0.60229168  0.31698129     0.09100
H1138       H  0.46426561  0.56168845  0.25682814     0.09100
H1139       H  0.47721538  0.54707172  0.21494526     0.09100
H1140       H  0.49644976  0.59255081  0.21928974     0.05900
C1141       C  0.37622271  0.43046215  0.80856985    -0.19900
C1142       C  0.36813653  0.40803286  0.77461825    -0.06500
C1143       C  0.34657806  0.37128015  0.78204291     0.14400
C1144       C  0.33274618  0.35824242  0.82249274    -0.20000
C1145       C  0.34001031  0.38071457  0.85600451    -0.06500
C1146       C  0.36265433  0.41751257  0.84892160     0.14400
C1147       C  0.37187408  0.44347125  0.88308930    -0.23300
H1148       H  0.39302850  0.45872488  0.80342562     0.15700
H1149       H  0.31583486  0.32997509  0.82795493     0.15700
C1150       C  0.33741582  0.34549481  0.74771990    -0.23200
H1151       H  0.38859636  0.47096309  0.87120159     0.05900
H1152       H  0.38703258  0.44270533  0.90879369     0.09100
H1153       H  0.34732905  0.43708905  0.89571431     0.09100
H1154       H  0.36197965  0.35169556  0.73548216     0.09100
H1155       H  0.32273106  0.34672366  0.72177865     0.09100
H1156       H  0.32038643  0.31793621  0.75941926     0.05900
C1157       C  0.39113169  0.40078317  0.50878390    -0.19900
C1158       C  0.41854155  0.43282886  0.52833859    -0.06500
C1159       C  0.44753558  0.45980785  0.50394891     0.14400
C1160       C  0.44603827  0.45588403  0.46013912    -0.20000
C1161       C  0.41646200  0.42565932  0.43960890    -0.06500
C1162       C  0.38948893  0.39689971  0.46460791     0.14400
C1163       C  0.35834390  0.36258192  0.44519937    -0.23300
H1164       H  0.36927399  0.37976146  0.52769218     0.15700
H1165       H  0.46766210  0.47779391  0.44172685     0.15700
C1166       C  0.48029138  0.49332243  0.52309696    -0.23200
H1167       H  0.34167331  0.34225619  0.46956856     0.05900
H1168       H  0.36781790  0.35237358  0.42387095     0.09100
H1169       H  0.34132905  0.36639891  0.42731038     0.09100
H1170       H  0.48115272  0.49232768  0.55797627     0.09100
H1171       H  0.48174583  0.51601652  0.51357169     0.09100
H1172       H  0.50421160  0.49779848  0.51158031     0.05900
C1173       C  0.71394878  0.74324444  0.81071972    -0.19900
C1174       C  0.73455264  0.76387415  0.77601658    -0.06500
C1175       C  0.76745339  0.79773339  0.78372211     0.14400
C1176       C  0.77731074  0.81068603  0.82536059    -0.20000
C1177       C  0.75517050  0.79106636  0.85966995    -0.06500
C1178       C  0.72357344  0.75622764  0.85215114     0.14400
C1179       C  0.69954563  0.73217931  0.88725701    -0.23300
H1180       H  0.68909530  0.71702769  0.80539634     0.15700
H1181       H  0.80214792  0.83691486  0.83093047     0.15700
C1182       C  0.79231369  0.82060643  0.74860311    -0.23200
H1183       H  0.67711805  0.70541256  0.87549416     0.05900
H1184       H  0.68799534  0.74297263  0.90275481     0.09100
H1185       H  0.71465522  0.72922906  0.91062964     0.09100
H1186       H  0.78017053  0.82862943  0.72762611     0.09100
H1187       H  0.79856250  0.80601021  0.73025107     0.09100
H1188       H  0.81768653  0.84509672  0.76085323     0.05900
C1189       C  0.63253194  0.79682654  0.67754546    -0.19900
C1190       C  0.65678096  0.80123908  0.64892524    -0.06500
C1191       C  0.67402891  0.82996663  0.62054608     0.14400
C1192       C  0.66825505  0.85445917  0.62354404    -0.20000
C1193       C  0.64544386  0.85099425  0.65360810    -0.06500
C1194       C  0.62658411  0.82123520  0.68029385     0.14400
C1195       C  0.60144370  0.81577042  0.71297866    -0.23300
H1196       H  0.61882512  0.77458918  0.69900769     0.15700
H1197       H  0.68222948  0.87698142  0.60258021     0.15700
C1198       C  0.69824639  0.83506742  0.58668777    -0.23200
H1199       H  0.58988294  0.79160661  0.73184517     0.05900
H1200       H  0.57923818  0.81285142  0.69731809     0.09100
H1201       H  0.61564474  0.83854677  0.73503947     0.09100
H1202       H  0.68401032  0.81108110  0.56660462     0.09100
H1203       H  0.72215659  0.84062330  0.60113532     0.09100
H1204       H  0.70739570  0.85763967  0.56586605     0.05900
C1205       C  0.72759382  0.74011426  0.50690687    -0.19900
C1206       C  0.69751594  0.71241371  0.52862296    -0.06500
C1207       C  0.66866791  0.68307575  0.50583830     0.14400
C1208       C  0.66866389  0.68410553  0.46186638    -0.20000
C1209       C  0.69679898  0.71361597  0.43983951    -0.06500
C1210       C  0.72761216  0.74110680  0.46248149     0.14400
C1211       C  0.75939366  0.77256100  0.44039497    -0.23300
H1212       H  0.74986499  0.76237690  0.52463458     0.15700
H1213       H  0.64545777  0.66236148  0.44454186     0.15700
C1214       C  0.63755796  0.65076437  0.52785621    -0.23200
H1215       H  0.78093446  0.79151726  0.46305417     0.05900
H1216       H  0.75190999  0.78657628  0.42260198     0.09100
H1217       H  0.76991650  0.76377884  0.41839634     0.09100
H1218       H  0.62333698  0.65715610  0.54668037     0.09100
H1219       H  0.64718855  0.64020156  0.54886610     0.09100
H1220       H  0.61821554  0.62966044  0.50510398     0.05900
C1221       C  0.53564753  0.55775561  0.65512809    -0.19900
C1222       C  0.50783491  0.55534299  0.67225265    -0.06500
C1223       C  0.51527674  0.58533170  0.69157501     0.14400
C1224       C  0.54988123  0.61739055  0.69088649    -0.20000
C1225       C  0.57741719  0.62037368  0.67176461    -0.06500
C1226       C  0.57036130  0.58989751  0.65453018     0.14400
C1227       C  0.59860889  0.59114720  0.63359919    -0.23300
H1228       H  0.52994587  0.53476150  0.64054196     0.15700
H1229       H  0.55534036  0.64048175  0.70484228     0.15700
C1230       C  0.48721868  0.58385314  0.71366512    -0.23200
H1231       H  0.58798697  0.56508181  0.62061843     0.05900
H1232       H  0.61981769  0.59928160  0.65679511     0.09100
H1233       H  0.60991083  0.61012010  0.60716712     0.09100
H1234       H  0.47433689  0.56279411  0.73788226     0.09100
H1235       H  0.46710708  0.57871591  0.69062620     0.09100
H1236       H  0.49855154  0.60909337  0.72982527     0.05900
C1237       C  0.15435858  0.37361785  0.12708561    -0.19900
C1238       C  0.17436470  0.39789218  0.09441630    -0.06500
C1239       C  0.19346612  0.43425494  0.10280793     0.14400
C1240       C  0.19247622  0.44502603  0.14334754    -0.20000
C1241       C  0.17238218  0.42068894  0.17581306    -0.06500
C1242       C  0.15289879  0.38438188  0.16733634     0.14400
C1243       C  0.13116858  0.35669906  0.20062082    -0.23300
H1244       H  0.13933703  0.34571817  0.12111981     0.15700
H1245       H  0.20745426  0.47291356  0.14966184     0.15700
C1246       C  0.21477771  0.46206783  0.06954000    -0.23200
H1247       H  0.11854850  0.32979610  0.18870266     0.05900
H1248       H  0.10968499  0.35686050  0.21093791     0.09100
H1249       H  0.14832236  0.36189141  0.22801883     0.09100
H1250       H  0.19711588  0.45755274  0.04314954     0.09100
H1251       H  0.23562215  0.46140287  0.05772662     0.09100
H1252       H  0.22813574  0.48899172  0.08202889     0.05900
C1253       C  0.30574294  0.49348147  0.32702949    -0.19900
C1254       C  0.27119179  0.46285782  0.33571252    -0.06500
C1255       C  0.26593037  0.43221946  0.34927523     0.14400
C1256       C  0.29472720  0.43235319  0.35013994    -0.20000
C1257       C  0.32852645  0.46189580  0.33735346    -0.06500
C1258       C  0.33441141  0.49338368  0.32726465     0.14400
C1259       C  0.37016428  0.52649046  0.31424680    -0.23300
H1260       H  0.31012441  0.51717096  0.31758839     0.15700
H1261       H  0.29041378  0.40855889  0.35906176     0.15700
C1262       C  0.23020516  0.39887201  0.36200999    -0.23200
H1263       H  0.36952442  0.54823292  0.30684523     0.05900
H1264       H  0.37898754  0.52133283  0.28552104     0.09100
H1265       H  0.38972308  0.53568760  0.34026906     0.09100
H1266       H  0.21189987  0.38698449  0.33435552     0.09100
H1267       H  0.21912676  0.40475465  0.38727833     0.09100
H1268       H  0.23191620  0.37874855  0.37436155     0.05900
C1269       C  0.13772071  0.37173089  0.76804697    -0.19900
C1270       C  0.14411878  0.40387454  0.76498214    -0.06500
C1271       C  0.15342181  0.42438238  0.80188394     0.14400
C1272       C  0.15770028  0.41299291  0.84015892    -0.20000
C1273       C  0.15289832  0.38166475  0.84303826    -0.06500
C1274       C  0.14204619  0.36033580  0.80650962     0.14400
C1275       C  0.13628119  0.32630502  0.80718268    -0.23300
H1276       H  0.13077150  0.35612635  0.73976394     0.15700
H1277       H  0.16489548  0.42885546  0.86829282     0.15700
C1278       C  0.15855597  0.45814986  0.80161938    -0.23200
H1279       H  0.12998184  0.31432514  0.77526717     0.05900
H1280       H  0.11368903  0.30689815  0.82773293     0.09100
H1281       H  0.16060968  0.33122988  0.81891368     0.09100
H1282       H  0.13496380  0.45343057  0.78746607     0.09100
H1283       H  0.18248523  0.47883385  0.78366596     0.09100
H1284       H  0.16229902  0.46862464  0.83398835     0.05900
C1285       C  0.25075527  0.42966618  0.61262821    -0.19900
C1286       C  0.25519420  0.45958956  0.62562951    -0.06500
C1287       C  0.28947960  0.49026806  0.63764331     0.14400
C1288       C  0.31768264  0.48942871  0.63817192    -0.20000
C1289       C  0.31284377  0.45886679  0.62735180    -0.06500
C1290       C  0.27889705  0.42878792  0.61322905     0.14400
C1291       C  0.27165241  0.39547731  0.59882413    -0.23300
H1292       H  0.22470263  0.40628012  0.60263940     0.15700
H1293       H  0.34371001  0.51276921  0.64854047     0.15700
C1294       C  0.29661180  0.52364347  0.65136124    -0.23200
H1295       H  0.24407057  0.37557131  0.58686534     0.05900
H1296       H  0.27528539  0.38328048  0.62553714     0.09100
H1297       H  0.28968039  0.40153357  0.57278220     0.09100
H1298       H  0.28059426  0.51839888  0.67940497     0.09100
H1299       H  0.29007914  0.53386867  0.62519702     0.09100
H1300       H  0.32488117  0.54468283  0.66011182     0.05900
C1301       C  0.12896055  0.45308892  0.48888365    -0.19900
C1302       C  0.12386904  0.42516132  0.51038277    -0.06500
C1303       C  0.11821662  0.39753048  0.48694536     0.14400
C1304       C  0.12175481  0.40059737  0.44278279    -0.20000
C1305       C  0.13181589  0.43108921  0.42221919    -0.06500
C1306       C  0.13340769  0.45666656  0.44521249     0.14400
C1307       C  0.14129485  0.48862906  0.42421620    -0.23300
H1308       H  0.13240564  0.47384367  0.50685873     0.15700
H1309       H  0.12024690  0.38090143  0.42495888     0.15700
C1310       C  0.11184343  0.36658948  0.50852177    -0.23200
H1311       H  0.13904559  0.50439589  0.44662559     0.05900
H1312       H  0.12229231  0.48018716  0.39773452     0.09100
H1313       H  0.16868602  0.50630000  0.41217878     0.09100
H1314       H  0.08728697  0.35223852  0.52722262     0.09100
H1315       H  0.13458436  0.37587126  0.52970985     0.09100
H1316       H  0.10869425  0.34779891  0.48547615     0.05900
C1317       C  0.11475595  0.70432511  0.77343923    -0.19900
C1318       C  0.13099804  0.68921500  0.76708181    -0.06500
C1319       C  0.14696620  0.68580353  0.80227593     0.14400
C1320       C  0.14904631  0.70040513  0.84125807    -0.20000
C1321       C  0.13573210  0.71841535  0.84672882    -0.06500
C1322       C  0.11672190  0.71883232  0.81267979     0.14400
C1323       C  0.09824276  0.73422280  0.81712437    -0.23300
H1324       H  0.10163345  0.70617441  0.74696592     0.15700
H1325       H  0.16246628  0.69872233  0.86751587     0.15700
C1326       C  0.16201367  0.66687325  0.79948838    -0.23200
H1327       H  0.08305444  0.73028807  0.78810149     0.05900
H1328       H  0.11790294  0.76300754  0.82299860     0.09100
H1329       H  0.07922737  0.72117509  0.84346758     0.09100
H1330       H  0.18597452  0.68196343  0.77969809     0.09100
H1331       H  0.14176160  0.64005695  0.78616696     0.09100
H1332       H  0.17010252  0.66386542  0.83096536     0.05900
C1333       C  0.16551949  0.58272815  0.68149230    -0.19900
C1334       C  0.14157453  0.58002930  0.65312392    -0.06500
C1335       C  0.11882310  0.54919342  0.62821159     0.14400
C1336       C  0.12131196  0.52237038  0.63189323    -0.20000
C1337       C  0.14651213  0.52587432  0.65864619    -0.06500
C1338       C  0.16831148  0.55605254  0.68467597     0.14400
C1339       C  0.19407182  0.56009140  0.71623909    -0.23300
H1340       H  0.18264700  0.60627458  0.70085776     0.15700
H1341       H  0.10469557  0.49927915  0.61173029     0.15700
C1342       C  0.09313835  0.54420148  0.59563589    -0.23200
H1343       H  0.20716336  0.58427708  0.73573154     0.05900
H1344       H  0.21516476  0.56210543  0.69981719     0.09100
H1345       H  0.17986003  0.53709787  0.73778833     0.09100
H1346       H  0.09996317  0.54049649  0.56410504     0.09100
H1347       H  0.06585398  0.52031305  0.60324194     0.09100
H1348       H  0.09322221  0.56671687  0.59338480     0.05900
C1349       C  0.28216606  0.78106832  0.62132691    -0.19900
C1350       C  0.25151020  0.77791952  0.62349273    -0.06500
C1351       C  0.25528780  0.80908333  0.62370791     0.14400
C1352       C  0.28927111  0.84200281  0.62228217    -0.20000
C1353       C  0.31986346  0.84510514  0.62069405    -0.06500
C1354       C  0.31617693  0.81406410  0.61987604     0.14400
C1355       C  0.34774275  0.81519007  0.61878853    -0.23300
H1356       H  0.27960901  0.75745041  0.62120850     0.15700
H1357       H  0.29194806  0.86567660  0.62296135     0.15700
C1358       C  0.22405079  0.80841022  0.62633231    -0.23200
H1359       H  0.33977624  0.78837579  0.61945621     0.05900
H1360       H  0.36521651  0.82984811  0.64663228     0.09100
H1361       H  0.36268151  0.82810486  0.58936024     0.09100
H1362       H  0.20933979  0.79511510  0.65578201     0.09100
H1363       H  0.20633864  0.79447656  0.59847307     0.09100
H1364       H  0.23231980  0.83535526  0.62675153     0.05900
C1365       C  0.12537230  0.71101460  0.16484763    -0.19900
C1366       C  0.14291466  0.69732105  0.17254867    -0.06500
C1367       C  0.15884953  0.69373437  0.13839022     0.14400
C1368       C  0.15939127  0.70665202  0.09853035    -0.20000
C1369       C  0.14474796  0.72336267  0.09170332    -0.06500
C1370       C  0.12606879  0.72412843  0.12495940     0.14400
C1371       C  0.10649973  0.73836263  0.11889657    -0.23300
H1372       H  0.11242302  0.71299253  0.19067279     0.15700
H1373       H  0.17260090  0.70485754  0.07287798     0.15700
C1374       C  0.17522445  0.67615383  0.14337556    -0.23200
H1375       H  0.09127689  0.73433322  0.14728146     0.05900
H1376       H  0.08740670  0.72461128  0.09209220     0.09100
H1377       H  0.12546446  0.76711817  0.11284464     0.09100
H1378       H  0.15586860  0.64970686  0.15768913     0.09100
H1379       H  0.19949633  0.69251830  0.16337247     0.09100
H1380       H  0.18307552  0.67253334  0.11257334     0.05900
C1381       C  0.09763010  0.62760815  0.44198486    -0.19900
C1382       C  0.10819875  0.65865367  0.42223954    -0.06500
C1383       C  0.11151284  0.68456926  0.44725251     0.14400
C1384       C  0.10895753  0.68077365  0.49142198    -0.20000
C1385       C  0.10457050  0.65259909  0.51113961    -0.06500
C1386       C  0.09643887  0.62452838  0.48605054     0.14400
C1387       C  0.08766287  0.59173006  0.50550645    -0.23300
H1388       H  0.09339831  0.60683165  0.42320049     0.15700
H1389       H  0.11413187  0.70175624  0.51073630     0.15700
C1390       C  0.11977903  0.71729177  0.42842106    -0.23200
H1391       H  0.07986987  0.57163432  0.48124155     0.05900
H1392       H  0.06522512  0.57985721  0.52742721     0.09100
H1393       H  0.11095336  0.59807536  0.52283403     0.09100
H1394       H  0.10010499  0.70988640  0.40322273     0.09100
H1395       H  0.14690849  0.73450239  0.41545155     0.09100
H1396       H  0.11868275  0.73298681  0.45236269     0.05900
C1397       C  0.14192763  0.56581414  0.28261715    -0.19900
C1398       C  0.17243254  0.60042519  0.29214619    -0.06500
C1399       C  0.20510867  0.60733583  0.29832251     0.14400
C1400       C  0.20611275  0.57944099  0.29625269    -0.20000
C1401       C  0.17554283  0.54460858  0.28818681    -0.06500
C1402       C  0.14295908  0.53781814  0.28080440     0.14400
C1403       C  0.10877291  0.50137560  0.27143650    -0.23300
H1404       H  0.11731129  0.56054971  0.27735723     0.15700
H1405       H  0.23117749  0.58499889  0.30159228     0.15700
C1406       C  0.23935714  0.64396513  0.30642576    -0.23200
H1407       H  0.08631438  0.50142592  0.26606212     0.05900
H1408       H  0.10180917  0.48363746  0.29850926     0.09100
H1409       H  0.11152709  0.49075407  0.24244740     0.09100
H1410       H  0.26242006  0.64447058  0.30800784     0.09100
H1411       H  0.23833771  0.65405038  0.33705176     0.09100
H1412       H  0.24411995  0.66179038  0.28053229     0.05900
C1413       C  0.29427628  0.78896600  0.32746412    -0.19900
C1414       C  0.26371861  0.78600675  0.32585322    -0.06500
C1415       C  0.26752327  0.81712998  0.32783058     0.14400
C1416       C  0.30154343  0.84999676  0.32816113    -0.20000
C1417       C  0.33208083  0.85299791  0.32662335    -0.06500
C1418       C  0.32835082  0.82188856  0.32784718     0.14400
C1419       C  0.35977684  0.82274510  0.32830096    -0.23300
H1420       H  0.29157161  0.76522723  0.32686621     0.15700
H1421       H  0.30420513  0.87368464  0.32848252     0.15700
C1422       C  0.23619579  0.81639223  0.32943853    -0.23200
H1423       H  0.35160767  0.79585038  0.32949312     0.05900
H1424       H  0.37660585  0.83727181  0.35659435     0.09100
H1425       H  0.37542217  0.83556804  0.29926757     0.09100
H1426       H  0.21914155  0.80002956  0.35637862     0.09100
H1427       H  0.22076962  0.80573404  0.29946025     0.09100
H1428       H  0.24448722  0.84315831  0.33376921     0.05900
loop_ 
_geom_bond_atom_site_label_1 
_geom_bond_atom_site_label_2 
_geom_bond_distance 
_geom_bond_site_symmetry_2 
_ccdc_geom_bond_type 
O1            C4   1.267       .  A
O1           Cd6   2.471       .  S
C2           O11   1.269       .  A
C2            O7   1.266       .  A
C2         C1398   1.488       .  S
O3            C9   1.263       .  A
O3           Cd6   2.491       .  S
C4           O12   1.263       .  A
C4         C1414   1.487       .  S
C5           O10   1.270       .  A
C5            O8   1.259       .  A
C5         C1366   1.485       .  S
Cd6          O13   2.470       .  S
Cd6          O12   2.437       .  S
Cd6          O11   2.462       .  S
Cd6           O7   2.437       .  S
Cd6          O10   2.521       .  S
Cd6           O8   2.411       .  S
C9           O13   1.264       .  A
C9         C1382   1.495       .  S
O14          C17   1.266       .  A
O14         Cd19   2.469       .  S
C15          O24   1.269       .  A
C15          O20   1.267       .  A
C15        C1334   1.473       .  S
O16          C22   1.272       .  A
O16         Cd19   2.529       .  S
C17          O25   1.264       .  A
C17        C1350   1.491       .  S
C18          O23   1.261       .  A
C18          O21   1.271       .  A
C18        C1385   1.483       .  S
Cd19         O26   2.414       .  S
Cd19         O25   2.462       .  S
Cd19         O24   2.462       .  S
Cd19         O20   2.424       .  S
Cd19         O23   2.425       .  S
Cd19         O21   2.532       .  S
C22          O26   1.260       .  A
C22        C1318   1.493       .  S
O27          C30   1.269       .  A
O27         Cd32   2.436       .  S
C28          O37   1.266       .  A
C28          O33   1.268       .  A
C28        C1286   1.487       .  S
O29          C35   1.274       .  A
O29         Cd32   2.499       .  S
C30          O38   1.269       .  A
C30        C1337   1.475       .  S
C31          O36   1.273       .  A
C31          O34   1.264       .  A
C31        C1302   1.479       .  S
Cd32         O39   2.382       .  S
Cd32         O38   2.438       .  S
Cd32         O37   2.429       .  S
Cd32         O33   2.461       .  S
Cd32         O36   2.516       .  S
Cd32         O34   2.381       .  S
C35          O39   1.261       .  A
C35        C1270   1.481       .  S
O40          C43   1.271       .  A
O40         Cd45   2.464       .  S
C41          O50   1.266       .  A
C41          O46   1.271       .  A
C41        C1401   1.490       .  S
O42          C48   1.272       .  A
O42         Cd45   2.473       .  S
C43          O51   1.264       .  A
C43        C1254   1.487       .  S
C44          O49   1.273       .  A
C44          O47   1.262       .  A
C44        C1305   1.476       .  S
Cd45         O52   2.433       .  S
Cd45         O51   2.423       .  S
Cd45         O50   2.439       .  S
Cd45         O46   2.446       .  S
Cd45         O49   2.513       .  S
Cd45         O47   2.372       .  S
C48          O52   1.266       .  A
C48        C1241   1.489       .  S
O53          C56   1.266       .  A
O53         Cd58   2.419       .  S
C54          O63   1.265       .  A
C54          O59   1.264       .  A
C54        C1190   1.485       .  S
O55          C61   1.265       .  A
O55         Cd58   2.497       .  S
C56          O64   1.268       .  A
C56        C1225   1.482       .  S
C57          O62   1.269       .  A
C57          O60   1.259       .  A
C57        C1206   1.472       .  S
Cd58         O65   2.445       .  S
Cd58         O64   2.471       .  S
Cd58         O63   2.460       .  S
Cd58         O59   2.450       .  S
Cd58         O62   2.535       .  S
Cd58         O60   2.389       .  S
C61          O65   1.264       .  A
C61        C1174   1.493       .  S
O66          C69   1.265       .  A
O66         Cd71   2.421       .  S
C67          O76   1.263       .  A
C67          O72   1.265       .  A
C67        C1289   1.489       .  S
O68          C74   1.263       .  A
O68         Cd71   2.410       .  S
C69          O77   1.268       .  A
C69        C1222   1.478       .  S
C70          O75   1.268       .  A
C70          O73   1.263       .  A
C70        C1142   1.491       .  S
Cd71         O78   2.515       .  S
Cd71         O77   2.460       .  S
Cd71         O76   2.450       .  S
Cd71         O72   2.469       .  S
Cd71         O75   2.504       .  S
Cd71         O73   2.418       .  S
C74          O78   1.269       .  A
C74        C1158   1.480       .  S
O79          C82   1.268       .  A
O79         Cd84   2.436       .  S
C80          O89   1.264       .  A
C80          O85   1.267       .  A
C80        C1113   1.487       .  S
O81          C87   1.271       .  A
O81         Cd84   2.514       .  S
C82          O90   1.267       .  A
C82        C1129   1.478       .  S
C83          O88   1.271       .  A
C83          O86   1.263       .  A
C83        C1094   1.489       .  S
Cd84         O91   2.385       .  S
Cd84         O90   2.448       .  S
Cd84         O89   2.445       .  S
Cd84         O85   2.450       .  S
Cd84         O88   2.504       .  S
Cd84         O86   2.399       .  S
C87          O91   1.263       .  A
C87        C1209   1.481       .  S
O92          C95   1.264       .  A
O92         Cd97   2.454       .  S
C93         O102   1.270       .  A
C93          O98   1.266       .  A
C93        C1126   1.477       .  S
O94         C100   1.266       .  A
O94         Cd97   2.504       .  S
C95         O103   1.265       .  A
C95        C1257   1.483       .  S
C96         O101   1.272       .  A
C96          O99   1.258       .  A
C96        C1081   1.489       .  S
Cd97        O104   2.453       .  S
Cd97        O103   2.444       .  S
Cd97        O102   2.468       .  S
Cd97         O98   2.418       .  S
Cd97        O101   2.548       .  S
Cd97         O99   2.414       .  S
C100        O104   1.263       .  A
C100       C1161   1.492       .  S
O105        C108   1.267       .  A
O105       Cd110   2.440       .  S
C106        O115   1.264       .  A
C106        O111   1.266       .  A
C106       C1353   1.486       .  S
O107        C113   1.270       .  A
O107       Cd110   2.514       .  S
C108        O116   1.269       .  A
C108       C1062   1.482       .  S
C109        O114   1.264       .  A
C109        O112   1.263       .  A
C109       C1049   1.497   1_565  S
Cd110       O117   2.422       .  S
Cd110       O116   2.452       .  S
Cd110       O115   2.434       .  S
Cd110       O111   2.474       .  S
Cd110       O114   2.511       .  S
Cd110       O112   2.477       .  S
C113        O117   1.260       .  A
C113       C1030   1.486       .  S
O118        C121   1.269       .  A
O118       Cd123   2.442       .  S
C119        O128   1.264       .  A
C119        O124   1.269       .  A
C119       C1193   1.480       .  S
O120        C126   1.272       .  A
O120       Cd123   2.503       .  S
C121        O129   1.267       .  A
C121       C1065   1.485       .  S
C122        O127   1.271       .  A
C122        O125   1.264       .  A
C122       C1001   1.489       .  S
Cd123       O130   2.400       .  S
Cd123       O129   2.451       .  S
Cd123       O128   2.416       .  S
Cd123       O124   2.479       .  S
Cd123       O127   2.491       .  S
Cd123       O125   2.406       .  S
C126        O130   1.265       .  A
C126       C1014   1.476       .  S
O131        C134   1.265       .  A
O131       Cd136   2.441       .  S
C132        O141   1.266       .  A
C132        O137   1.265       .  A
C132       C1417   1.486       .  S
O133        C139   1.263       .  A
O133       Cd136   2.457       .  S
C134        O142   1.269       .  A
C134        C982   1.479       .  S
C135        O140   1.270       .  A
C135        O138   1.259       .  A
C135        C966   1.498       .  S
Cd136       O143   2.501   1_565  S
Cd136       O142   2.451       .  S
Cd136       O141   2.440       .  S
Cd136       O137   2.452       .  S
Cd136       O140   2.530       .  S
Cd136       O138   2.433       .  S
C139        O143   1.265   1_565  A
C139       C1046   1.490   1_565  S
O144        C147   1.270       .  A
O144       Cd149   2.438       .  S
C145        O154   1.265       .  A
C145        O150   1.267       .  A
C145       C1110   1.487       .  S
O146        C152   1.273       .  A
O146       Cd149   2.521       .  S
C147        O155   1.268       .  A
C147        C985   1.485       .  S
C148        O153   1.273       .  A
C148        O151   1.263       .  A
C148       C1017   1.475       .  S
Cd149       O156   2.400       .  S
Cd149       O155   2.440       .  S
Cd149       O154   2.423       .  S
Cd149       O150   2.458       .  S
Cd149       O153   2.511       .  S
Cd149       O151   2.385       .  S
C152        O156   1.264       .  A
C152        C953   1.492       .  S
O157        C160   1.269       .  A
O157       Cd162   2.440       .  S
C158        O167   1.265       .  A
C158        O163   1.269       .  A
C158        C902   1.483       .  S
O159        C165   1.272   1_455  A
O159       Cd162   2.473   1_455  S
C160        O168   1.268   1_655  A
C160        C937   1.485       .  S
C161        O166   1.271       .  A
C161        O164   1.263   1_455  A
C161        C921   1.472       .  S
Cd162       O169   2.424       .  S
Cd162       O168   2.434   1_655  S
Cd162       O167   2.406       .  S
Cd162       O163   2.477       .  S
Cd162       O166   2.520   1_655  S
Cd162       O164   2.386       .  S
C165        O169   1.263       .  A
C165        C886   1.485       .  S
O170        C173   1.268       .  A
O170       Cd175   2.430       .  S
C171        O180   1.263       .  A
C171        O176   1.266       .  A
C171        C873   1.486       .  S
O172        C178   1.263       .  A
O172       Cd175   2.471   1_455  S
C173        O181   1.268   1_655  A
C173        C934   1.489       .  S
C174        O179   1.269       .  A
C174        O177   1.261   1_455  A
C174        C838   1.484       .  S
Cd175       O182   2.463   1_655  S
Cd175       O181   2.454   1_655  S
Cd175       O180   2.445       .  S
Cd175       O176   2.463       .  S
Cd175       O179   2.511   1_655  S
Cd175       O177   2.409       .  S
C178        O182   1.264       .  A
C178        C854   1.491       .  S
O183        C186   1.267       .  A
O183       Cd188   2.447       .  S
C184        O193   1.265       .  A
C184        O189   1.268       .  A
C184        C806   1.487       .  S
O185        C191   1.272       .  A
O185       Cd188   2.518   1_455  S
C186        O194   1.268       .  A
C186        C822   1.485       .  S
C187        O192   1.272   1_655  A
C187        O190   1.261       .  A
C187        C793   1.489       .  S
Cd188       O195   2.377       .  S
Cd188       O194   2.458       .  S
Cd188       O193   2.417       .  S
Cd188       O189   2.484       .  S
Cd188       O192   2.499   1_655  S
Cd188       O190   2.399       .  S
C191        O195   1.264   1_455  A
C191        C918   1.476       .  S
O196        C199   1.268       .  A
O196       Cd201   2.462       .  S
C197        O206   1.266   1_655  A
C197        O202   1.267       .  A
C197        C825   1.483       .  S
O198        C204   1.262       .  A
O198       Cd201   2.449   1_455  S
C199        O207   1.264       .  A
C199        C774   1.486       .  S
C200        O205   1.268       .  A
C200        O203   1.261   1_455  A
C200        C758   1.492       .  S
Cd201       O208   2.494   1_655  S
Cd201       O207   2.417       .  S
Cd201       O206   2.455   1_655  S
Cd201       O202   2.442       .  S
Cd201       O205   2.515   1_655  S
Cd201       O203   2.428       .  S
C204        O208   1.265       .  A
C204        C857   1.484       .  S
O209        C212   1.266       .  A
O209       Cd214   2.425       .  S
C210        O219   1.264       .  A
C210        O215   1.265       .  A
C210        C809   1.483       .  S
O211        C217   1.269       .  A
O211       Cd214   2.529       .  S
C212        O220   1.270       .  A
C212        C742   1.487       .  S
C213        O218   1.265       .  A
C213        O216   1.263       .  A
C213        C729   1.485       .  S
Cd214       O221   2.445       .  S
Cd214       O220   2.457       .  S
Cd214       O219   2.445       .  S
Cd214       O215   2.473       .  S
Cd214       O218   2.495       .  S
Cd214       O216   2.469       .  S
C217        O221   1.259       .  A
C217        C713   1.499       .  S
O222        C225   1.266       .  A
O222       Cd227   2.432       .  S
C223        O232   1.266       .  A
C223        O228   1.266       .  A
C223        C697   1.482       .  S
O224        C230   1.262       .  A
O224       Cd227   2.444       .  S
C225        O233   1.266       .  A
C225        C745   1.488       .  S
C226        O231   1.269       .  A
C226        O229   1.262       .  A
C226        C662   1.495       .  S
Cd227       O234   2.503       .  S
Cd227       O233   2.467       .  S
Cd227       O232   2.433       .  S
Cd227       O228   2.451       .  S
Cd227       O231   2.509       .  S
Cd227       O229   2.448       .  S
C230        O234   1.267       .  A
C230        C678   1.483       .  S
O235        C238   1.264       .  A
O235       Cd240   2.409       .  S
C236        O245   1.265       .  A
C236        O241   1.265       .  A
C236        C905   1.485       .  S
O237        C243   1.265       .  A
O237       Cd240   2.487       .  S
C238        O246   1.269       .  A
C238        C649   1.480       .  S
C239        O244   1.261       .  A
C239        O242   1.267       .  A
C239        C630   1.494       .  S
Cd240       O247   2.458       .  S
Cd240       O246   2.461       .  S
Cd240       O245   2.451       .  S
Cd240       O241   2.456       .  S
Cd240       O244   2.439       .  S
Cd240       O242   2.513       .  S
C243        O247   1.264       .  A
C243        C726   1.484       .  S
O248        C251   1.267       .  A
O248       Cd253   2.409       .  S
C249        O258   1.266       .  A
C249        O254   1.265       .  A
C249        C614   1.482       .  S
O250        C256   1.270       .  A
O250       Cd253   2.526       .  S
C251        O259   1.267       .  A
C251        C646   1.484       .  S
C252        O257   1.264       .  A
C252        O255   1.264       .  A
C252        C681   1.487       .  S
Cd253       O260   2.420       .  S
Cd253       O259   2.467       .  S
Cd253       O258   2.449       .  S
Cd253       O254   2.470       .  S
Cd253       O257   2.481       .  S
Cd253       O255   2.469       .  S
C256        O260   1.258       .  A
C256        C598   1.494       .  S
O261        C264   1.266       .  A
O261       Cd266   2.449       .  S
C262        O271   1.266       .  A
C262        O267   1.266       .  A
C262        C870   1.487       .  S
O263        C269   1.260       .  A
O263       Cd266   2.412       .  S
C264        O272   1.267       .  A
C264        C582   1.484       .  S
C265        O270   1.263       .  A
C265        O268   1.264       .  A
C265        C569   1.487       .  S
Cd266       O273   2.521       .  S
Cd266       O272   2.452       .  S
Cd266       O271   2.437       .  S
Cd266       O267   2.464       .  S
Cd266       O270   2.478       .  S
Cd266       O268   2.476       .  S
C269        O273   1.270       .  A
C269        C550   1.488       .  S
O274        C277   1.267       .  A
O274       Cd279   2.423       .  S
C275        O284   1.265       .  A
C275        O280   1.263       .  A
C275        C777   1.484       .  S
O276        C282   1.267       .  A
O276       Cd279   2.515       .  S
C277        O285   1.269       .  A
C277        C537   1.489       .  S
C278        O283   1.270       .  A
C278        O281   1.262       .  A
C278        C518   1.494       .  S
Cd279       O286   2.444       .  S
Cd279       O285   2.459       .  S
Cd279       O284   2.436       .  S
Cd279       O280   2.459       .  S
Cd279       O283   2.528       .  S
Cd279       O281   2.432       .  S
C282        O286   1.263       .  A
C282        C566   1.492       .  S
O287        C290   1.268       .  A
O287       Cd292   2.450       .  S
C288        O297   1.269       .  A
C288        O293   1.267       .  A
C288        C534   1.487       .  S
O289        C295   1.272       .  A
O289       Cd292   2.524       .  S
C290        O298   1.265       .  A
C290        C694   1.481       .  S
C291        O296   1.273       .  A
C291        O294   1.261       .  A
C291        C486   1.486       .  S
Cd292       O299   2.389       .  S
Cd292       O298   2.426       .  S
Cd292       O297   2.436       .  S
Cd292       O293   2.426       .  S
Cd292       O296   2.506       .  S
Cd292       O294   2.396       .  S
C295        O299   1.263       .  A
C295        C502   1.480       .  S
O300        C303   1.269       .  A
O300       Cd305   2.445       .  S
C301        O310   1.263       .  A
C301        O306   1.268       .  A
C301        C617   1.483       .  S
O302        C308   1.271       .  A
O302       Cd305   2.512       .  S
C303        O311   1.267       .  A
C303        C585   1.484       .  S
C304        O309   1.270       .  A
C304        O307   1.264       .  A
C304        C470   1.493       .  S
Cd305       O312   2.380       .  S
Cd305       O311   2.432       .  S
Cd305       O310   2.433       .  S
Cd305       O306   2.472       .  S
Cd305       O309   2.497       .  S
Cd305       O307   2.418       .  S
C308        O312   1.262       .  A
C308        C505   1.476       .  S
O313        C316   1.276       .  A
O313       Cd318   2.506   1_545  S
C314        O323   1.266       .  A
C314        O319   1.273       .  A
C314        C329   1.469       .  S
O315        C321   1.268       .  A
O315       Cd318   2.445   1_554  S
C316        O324   1.261       .  A
C316        C407   1.455       .  S
C317        O322   1.271       .  A
C317        O320   1.268       .  A
C317        C998   1.489       .  S
Cd318       O325   2.463   1_556  S
Cd318       O324   2.321   1_565  S
Cd318       O323   2.392       .  S
Cd318       O319   2.519       .  S
Cd318       O322   2.456       .  S
Cd318       O320   2.421       .  S
C321        O325   1.269       .  A
C321        C950   1.496       .  S
O326        C329   1.274       .  A
O326       Cd331   2.521       .  S
C327        O336   1.261       .  A
C327        O332   1.276       .  A
C327        C353   1.456       .  S
O328        C334   1.271       .  A
O328       Cd331   2.453   1_554  S
C329        O337   1.264       .  A
C330        O335   1.268       .  A
C330        O333   1.268       .  A
C330       C1177   1.493       .  S
Cd331       O338   2.441   1_556  S
Cd331       O337   2.382       .  S
Cd331       O336   2.292       .  S
Cd331       O332   2.531       .  S
Cd331       O335   2.452       .  S
Cd331       O333   2.469       .  S
C334        O338   1.269       .  A
C334       C1097   1.483       .  S
O339        C342   1.273       .  A
O339       Cd344   2.501       .  S
C340        O349   1.264       .  A
C340        O345   1.277       .  A
C340        C381   1.450       .  S
O341        C347   1.274       .  A
O341       Cd344   2.456   1_554  S
C342        O350   1.266       .  A
C342        C355   1.463       .  S
C343        O348   1.273       .  A
C343        O346   1.266       .  A
C343        C889   1.488       .  S
Cd344       O351   2.422   1_556  S
Cd344       O350   2.360       .  S
Cd344       O349   2.322   1_655  S
Cd344       O345   2.470   1_655  S
Cd344       O348   2.465       .  S
Cd344       O346   2.423       .  S
C347        O351   1.267       .  A
C347        C790   1.492       .  S
O352        C355   1.272       .  A
O352       Cd357   2.519       .  S
C353        O362   1.261       .  A
C353        O358   1.274       .  A
O354        C360   1.268       .  A
O354       Cd357   2.467       .  S
C355        O363   1.263       .  A
C356        O361   1.270       .  A
C356        O359   1.267       .  A
C356        C710   1.493       .  S
Cd357       O364   2.468       .  S
Cd357       O363   2.366       .  S
Cd357       O362   2.294       .  S
Cd357       O358   2.533       .  S
Cd357       O361   2.465   1_556  S
Cd357       O359   2.461   1_556  S
C360        O364   1.268       .  A
C360        C633   1.493       .  S
O365        C368   1.266       .  A
O365       Cd370   2.470       .  S
C366        O375   1.262       .  A
C366        O371   1.268   1_545  A
C366        C433   1.451       .  S
O367        C373   1.269       .  A
O367       Cd370   2.478   1_554  S
C368        O376   1.264       .  A
C368        C379   1.465       .  S
C369        O374   1.266       .  A
C369        O372   1.264       .  A
C369       C1033   1.495       .  S
Cd370       O377   2.480   1_556  S
Cd370       O376   2.458       .  S
Cd370       O375   2.343   1_565  S
Cd370       O371   2.505       .  S
Cd370       O374   2.484       .  S
Cd370       O372   2.470       .  S
C373        O377   1.265       .  A
C373        C969   1.491       .  S
O378        C381   1.267       .  A
O378       Cd383   2.482       .  S
C379        O388   1.265       .  A
C379        O384   1.264       .  A
O380        C386   1.268       .  A
O380       Cd383   2.497   1_554  S
C381        O389   1.264       .  A
C382        O387   1.268       .  A
C382        O385   1.263       .  A
C382       C1321   1.496       .  S
Cd383       O390   2.448   1_556  S
Cd383       O389   2.363       .  S
Cd383       O388   2.469       .  S
Cd383       O384   2.469       .  S
Cd383       O387   2.484       .  S
Cd383       O385   2.485       .  S
C386        O390   1.262       .  A
C386       C1369   1.489       .  S
O391        C394   1.265       .  A
O391       Cd396   2.488   1_455  S
C392        O401   1.265       .  A
C392        O397   1.263       .  A
C392        C405   1.464       .  S
O393        C399   1.264   1_655  A
O393       Cd396   2.479   1_554  S
C394        O402   1.264       .  A
C394        C459   1.451       .  S
C395        O400   1.264       .  A
C395        O398   1.266   1_455  A
C395        C841   1.484       .  S
Cd396       O403   2.481   1_656  S
Cd396       O402   2.371   1_655  S
Cd396       O401   2.473       .  S
Cd396       O397   2.457       .  S
Cd396       O400   2.452   1_655  S
Cd396       O398   2.478       .  S
C399        O403   1.265       .  A
C399        C761   1.493       .  S
O404        C407   1.268       .  A
O404       Cd409   2.505       .  S
C405        O414   1.264       .  A
C405        O410   1.265       .  A
O406        C412   1.268       .  A
O406       Cd409   2.481       .  S
C407        O415   1.264       .  A
C408        O413   1.268       .  A
C408        O411   1.264       .  A
C408        C521   1.491       .  S
Cd409       O416   2.485       .  S
Cd409       O415   2.356       .  S
Cd409       O414   2.466       .  S
Cd409       O410   2.463       .  S
Cd409       O413   2.497   1_556  S
Cd409       O411   2.473   1_556  S
C412        O416   1.264       .  A
C412        C553   1.497       .  S
O417        C420   1.274       .  A
O417       Cd422   2.518       .  S
C418        O427   1.261       .  A
C418        O423   1.276       .  A
C418        C444   1.455       .  S
O419        C425   1.269       .  A
O419       Cd422   2.454   1_554  S
C420        O428   1.264       .  A
C420        C431   1.467       .  S
C421        O426   1.270       .  A
C421        O424   1.268       .  A
C421        C601   1.487       .  S
Cd422       O429   2.467   1_556  S
Cd422       O428   2.379       .  S
Cd422       O427   2.284       .  S
Cd422       O423   2.529       .  S
Cd422       O426   2.450       .  S
Cd422       O424   2.461       .  S
C425        O429   1.269       .  A
C425        C665   1.493       .  S
O430        C433   1.276       .  A
O430       Cd435   2.492       .  S
C431        O440   1.266       .  A
C431        O436   1.272       .  A
O432        C438   1.274       .  A
O432       Cd435   2.464   1_554  S
C433        O441   1.262       .  A
C434        O439   1.270       .  A
C434        O437   1.268       .  A
C434        C473   1.499       .  S
Cd435       O442   2.429   1_556  S
Cd435       O441   2.307       .  S
Cd435       O440   2.391       .  S
Cd435       O436   2.511       .  S
Cd435       O439   2.473       .  S
Cd435       O437   2.467       .  S
C438        O442   1.266       .  A
C438        C489   1.493       .  S
O443        C446   1.272       .  A
O443       Cd448   2.520       .  S
C444        O453   1.262       .  A
C444        O449   1.274       .  A
O445        C451   1.269       .  A
O445       Cd448   2.450       .  S
C446        O454   1.262       .  A
C446        C457   1.463       .  S
C447        O452   1.269       .  A
C447        O450   1.265       .  A
C447       C1078   1.498       .  S
Cd448       O455   2.457       .  S
Cd448       O454   2.363       .  S
Cd448       O453   2.291       .  S
Cd448       O449   2.528       .  S
Cd448       O452   2.476   1_556  S
Cd448       O450   2.464   1_556  S
C451        O455   1.268       .  A
C451       C1145   1.488       .  S
O456        C459   1.278       .  A
O456       Cd461   2.470       .  S
C457        O466   1.267       .  A
C457        O462   1.274       .  A
O458        C464   1.273       .  A
O458       Cd461   2.445       .  S
C459        O467   1.264       .  A
C460        O465   1.273       .  A
C460        O463   1.269       .  A
C460       C1238   1.496       .  S
Cd461       O468   2.441       .  S
Cd461       O467   2.313       .  S
Cd461       O466   2.360       .  S
Cd461       O462   2.503       .  S
Cd461       O465   2.470   1_556  S
Cd461       O463   2.428   1_556  S
C464        O468   1.268       .  A
C464       C1273   1.486       .  S
C469        C470   1.406       .  A
C469        C474   1.404       .  A
C469        H476   1.087       .  S
C470        C471   1.417       .  A
C471        C472   1.408       .  A
C471        C478   1.507       .  S
C472        C473   1.410       .  A
C472        H477   1.088       .  S
C473        C474   1.419       .  A
C474        C475   1.508       .  S
C475        H479   1.111       .  S
C475        H480   1.110       .  S
C475        H481   1.110       .  S
C478        H482   1.108       .  S
C478        H483   1.110       .  S
C478        H484   1.111       .  S
C485        C486   1.402       .  A
C485        C490   1.407       .  A
C485        H492   1.085       .  S
C486        C487   1.419       .  A
C487        C488   1.402       .  A
C487        C494   1.510       .  S
C488        C489   1.403       .  A
C488        H493   1.085       .  S
C489        C490   1.424       .  A
C490        C491   1.508       .  S
C491        H495   1.111       .  S
C491        H496   1.110       .  S
C491        H497   1.110       .  S
C494        H498   1.110       .  S
C494        H499   1.109       .  S
C494        H500   1.111       .  S
C501        C502   1.403       .  A
C501        C506   1.399       .  A
C501        H508   1.084       .  S
C502        C503   1.413       .  A
C503        C504   1.409       .  A
C503        C510   1.504       .  S
C504        C505   1.404       .  A
C504        H509   1.083       .  S
C505        C506   1.414       .  A
C506        C507   1.510       .  S
C507        H511   1.111       .  S
C507        H512   1.109       .  S
C507        H513   1.108       .  S
C510        H514   1.111       .  S
C510        H515   1.110       .  S
C510        H516   1.111       .  S
C517        C518   1.408       .  A
C517        C522   1.405       .  A
C517        H524   1.084       .  S
C518        C519   1.417       .  A
C519        C520   1.410       .  A
C519        C526   1.507       .  S
C520        C521   1.408       .  A
C520        H525   1.086       .  S
C521        C522   1.414       .  A
C522        C523   1.508       .  S
C523        H527   1.111       .  S
C523        H528   1.110       .  S
C523        H529   1.110       .  S
C526        H530   1.110       .  S
C526        H531   1.110       .  S
C526        H532   1.111       .  S
C533        C534   1.406       .  A
C533        C538   1.403       .  A
C533        H540   1.086       .  S
C534        C535   1.419       .  A
C535        C536   1.401       .  A
C535        C542   1.510       .  S
C536        C537   1.406       .  A
C536        H541   1.086       .  S
C537        C538   1.417       .  A
C538        C539   1.507       .  S
C539        H543   1.110       .  S
C539        H544   1.108       .  S
C539        H545   1.111       .  S
C542        H546   1.110       .  S
C542        H547   1.110       .  S
C542        H548   1.111       .  S
C549        C550   1.404       .  A
C549        C554   1.410       .  A
C549        H556   1.082       .  S
C550        C551   1.417       .  A
C551        C552   1.403       .  A
C551        C558   1.510       .  S
C552        C553   1.405       .  A
C552        H557   1.082       .  S
C553        C554   1.423       .  A
C554        C555   1.508       .  S
C555        H559   1.111       .  S
C555        H560   1.110       .  S
C555        H561   1.110       .  S
C558        H562   1.111       .  S
C558        H563   1.109       .  S
C558        H564   1.111       .  S
C565        C566   1.406       .  A
C565        C570   1.404       .  A
C565        H572   1.084       .  S
C566        C567   1.418       .  A
C567        C568   1.408       .  A
C567        C574   1.506       .  S
C568        C569   1.405       .  A
C568        H573   1.084       .  S
C569        C570   1.418       .  A
C570        C571   1.510       .  S
C571        H575   1.111       .  S
C571        H576   1.110       .  S
C571        H577   1.109       .  S
C574        H578   1.110       .  S
C574        H579   1.109       .  S
C574        H580   1.111       .  S
C581        C582   1.404       .  A
C581        C586   1.403       .  A
C581        H588   1.083       .  S
C582        C583   1.416       .  A
C583        C584   1.403       .  A
C583        C590   1.508       .  S
C584        C585   1.404       .  A
C584        H589   1.086       .  S
C585        C586   1.419       .  A
C586        C587   1.509       .  S
C587        H591   1.110       .  S
C587        H592   1.109       .  S
C587        H593   1.110       .  S
C590        H594   1.109       .  S
C590        H595   1.110       .  S
C590        H596   1.111       .  S
C597        C598   1.406       .  A
C597        C602   1.408       .  A
C597        H604   1.086       .  S
C598        C599   1.424       .  A
C599        C600   1.402       .  A
C599        C606   1.510       .  S
C600        C601   1.400       .  A
C600        H605   1.087       .  S
C601        C602   1.418       .  A
C602        C603   1.508       .  S
C603        H607   1.111       .  S
C603        H608   1.111       .  S
C603        H609   1.109       .  S
C606        H610   1.110       .  S
C606        H611   1.110       .  S
C606        H612   1.111       .  S
C613        C614   1.403       .  A
C613        C618   1.402       .  A
C613        H620   1.086       .  S
C614        C615   1.416       .  A
C615        C616   1.404       .  A
C615        C622   1.508       .  S
C616        C617   1.404       .  A
C616        H621   1.085       .  S
C617        C618   1.417       .  A
C618        C619   1.509       .  S
C619        H623   1.111       .  S
C619        H624   1.109       .  S
C619        H625   1.111       .  S
C622        H626   1.110       .  S
C622        H627   1.110       .  S
C622        H628   1.111       .  S
C629        C630   1.408       .  A
C629        C634   1.404       .  A
C629        H636   1.084       .  S
C630        C631   1.417       .  A
C631        C632   1.408       .  A
C631        C638   1.508       .  S
C632        C633   1.408       .  A
C632        H637   1.084       .  S
C633        C634   1.417       .  A
C634        C635   1.508       .  S
C635        H639   1.111       .  S
C635        H640   1.110       .  S
C635        H641   1.110       .  S
C638        H642   1.111       .  S
C638        H643   1.110       .  S
C638        H644   1.111       .  S
C645        C646   1.404       .  A
C645        C650   1.397       .  A
C645        H652   1.082       .  S
C646        C647   1.418       .  A
C647        C648   1.405       .  A
C647        C654   1.508       .  S
C648        C649   1.405       .  A
C648        H653   1.082       .  S
C649        C650   1.416       .  A
C650        C651   1.510       .  S
C651        H655   1.111       .  S
C651        H656   1.109       .  S
C651        H657   1.111       .  S
C654        H658   1.110       .  S
C654        H659   1.110       .  S
C654        H660   1.111       .  S
C661        C662   1.408       .  A
C661        C666   1.405       .  A
C661        H668   1.084       .  S
C662        C663   1.417       .  A
C663        C664   1.408       .  A
C663        C670   1.507       .  S
C664        C665   1.408       .  A
C664        H669   1.085       .  S
C665        C666   1.417       .  A
C666        C667   1.509       .  S
C667        H671   1.110       .  S
C667        H672   1.110       .  S
C667        H673   1.110       .  S
C670        H674   1.110       .  S
C670        H675   1.110       .  S
C670        H676   1.111       .  S
C677        C678   1.404       .  A
C677        C682   1.406       .  A
C677        H684   1.084       .  S
C678        C679   1.414       .  A
C679        C680   1.406       .  A
C679        C686   1.507       .  S
C680        C681   1.405       .  A
C680        H685   1.082       .  S
C681        C682   1.418       .  A
C682        C683   1.508       .  S
C683        H687   1.111       .  S
C683        H688   1.110       .  S
C683        H689   1.108       .  S
C686        H690   1.108       .  S
C686        H691   1.110       .  S
C686        H692   1.110       .  S
C693        C694   1.405       .  A
C693        C698   1.403       .  A
C693        H700   1.083       .  S
C694        C695   1.416       .  A
C695        C696   1.402       .  A
C695        C702   1.509       .  S
C696        C697   1.405       .  A
C696        H701   1.083       .  S
C697        C698   1.416       .  A
C698        C699   1.508       .  S
C699        H703   1.111       .  S
C699        H704   1.110       .  S
C699        H705   1.110       .  S
C702        H706   1.111       .  S
C702        H707   1.109       .  S
C702        H708   1.111       .  S
C709        C710   1.402       .  A
C709        C714   1.405       .  A
C709        H716   1.087       .  S
C710        C711   1.420       .  A
C711        C712   1.409       .  A
C711        C718   1.508       .  S
C712        C713   1.406       .  A
C712        H717   1.086       .  S
C713        C714   1.424       .  A
C714        C715   1.509       .  S
C715        H719   1.111       .  S
C715        H720   1.110       .  S
C715        H721   1.110       .  S
C718        H722   1.111       .  S
C718        H723   1.109       .  S
C718        H724   1.110       .  S
C725        C726   1.404       .  A
C725        C730   1.405       .  A
C725        H732   1.085       .  S
C726        C727   1.414       .  A
C727        C728   1.407       .  A
C727        C734   1.506       .  S
C728        C729   1.404       .  A
C728        H733   1.084       .  S
C729        C730   1.417       .  A
C730        C731   1.509       .  S
C731        H735   1.111       .  S
C731        H736   1.110       .  S
C731        H737   1.110       .  S
C734        H738   1.108       .  S
C734        H739   1.111       .  S
C734        H740   1.110       .  S
C741        C742   1.406       .  A
C741        C746   1.405       .  A
C741        H748   1.082       .  S
C742        C743   1.418       .  A
C743        C744   1.401       .  A
C743        C750   1.510       .  S
C744        C745   1.406       .  A
C744        H749   1.082       .  S
C745        C746   1.418       .  A
C746        C747   1.508       .  S
C747        H751   1.111       .  S
C747        H752   1.110       .  S
C747        H753   1.110       .  S
C750        H754   1.111       .  S
C750        H755   1.110       .  S
C750        H756   1.111       .  S
C757        C758   1.407   1_655  A
C757        C762   1.404       .  A
C757        H764   1.086       .  S
C758        C759   1.416       .  A
C759        C760   1.408       .  A
C759        C766   1.507       .  S
C760        C761   1.408       .  A
C760        H765   1.085       .  S
C761        C762   1.417   1_455  A
C762        C763   1.508       .  S
C763        H767   1.111       .  S
C763        H768   1.110       .  S
C763        H769   1.110       .  S
C766        H770   1.110       .  S
C766        H771   1.111       .  S
C766        H772   1.110       .  S
C773        C774   1.406       .  A
C773        C778   1.404       .  A
C773        H780   1.085       .  S
C774        C775   1.419       .  A
C775        C776   1.399       .  A
C775        C782   1.510       .  S
C776        C777   1.403       .  A
C776        H781   1.084       .  S
C777        C778   1.418       .  A
C778        C779   1.509       .  S
C779        H783   1.111       .  S
C779        H784   1.110       .  S
C779        H785   1.109       .  S
C782        H786   1.110       .  S
C782        H787   1.110       .  S
C782        H788   1.111       .  S
C789        C790   1.403       .  A
C789        C794   1.402       .  A
C789        H796   1.085       .  S
C790        C791   1.422   1_655  A
C791        C792   1.406       .  A
C791        C798   1.509       .  S
C792        C793   1.403   1_455  A
C792        H797   1.085       .  S
C793        C794   1.421       .  A
C794        C795   1.510       .  S
C795        H799   1.111       .  S
C795        H800   1.110       .  S
C795        H801   1.111       .  S
C798        H802   1.110       .  S
C798        H803   1.110       .  S
C798        H804   1.111       .  S
C805        C806   1.405       .  A
C805        C810   1.401       .  A
C805        H812   1.082       .  S
C806        C807   1.417       .  A
C807        C808   1.406       .  A
C807        C814   1.507       .  S
C808        C809   1.406       .  A
C808        H813   1.084       .  S
C809        C810   1.415       .  A
C810        C811   1.509       .  S
C811        H815   1.111       .  S
C811        H816   1.110       .  S
C811        H817   1.109       .  S
C814        H818   1.110       .  S
C814        H819   1.110       .  S
C814        H820   1.111       .  S
C821        C822   1.407   1_455  A
C821        C826   1.405       .  A
C821        H828   1.085       .  S
C822        C823   1.416       .  A
C823        C824   1.403       .  A
C823        C830   1.508       .  S
C824        C825   1.404       .  A
C824        H829   1.083       .  S
C825        C826   1.416   1_655  A
C826        C827   1.509       .  S
C827        H831   1.111       .  S
C827        H832   1.108       .  S
C827        H833   1.111       .  S
C830        H834   1.110       .  S
C830        H835   1.110       .  S
C830        H836   1.111       .  S
C837        C838   1.406   1_655  A
C837        C842   1.402       .  A
C837        H844   1.084       .  S
C838        C839   1.414       .  A
C839        C840   1.406       .  A
C839        C846   1.507       .  S
C840        C841   1.407       .  A
C840        H845   1.084       .  S
C841        C842   1.413   1_455  A
C842        C843   1.508       .  S
C843        H847   1.111       .  S
C843        H848   1.110       .  S
C843        H849   1.111       .  S
C846        H850   1.109       .  S
C846        H851   1.110       .  S
C846        H852   1.111       .  S
C853        C854   1.407       .  A
C853        C858   1.405       .  A
C853        H860   1.085       .  S
C854        C855   1.420       .  A
C855        C856   1.404       .  A
C855        C862   1.508       .  S
C856        C857   1.403       .  A
C856        H861   1.087       .  S
C857        C858   1.416       .  A
C858        C859   1.509       .  S
C859        H863   1.111       .  S
C859        H864   1.110       .  S
C859        H865   1.108       .  S
C862        H866   1.110   1_455  S
C862        H867   1.109       .  S
C862        H868   1.111       .  S
C869        C870   1.405       .  A
C869        C874   1.402       .  A
C869        H876   1.084       .  S
C870        C871   1.418       .  A
C871        C872   1.404       .  A
C871        C878   1.508       .  S
C872        C873   1.405       .  A
C872        H877   1.085       .  S
C873        C874   1.418       .  A
C874        C875   1.509       .  S
C875        H879   1.111       .  S
C875        H880   1.111       .  S
C875        H881   1.110       .  S
C878        H882   1.110       .  S
C878        H883   1.110       .  S
C878        H884   1.111       .  S
C885        C886   1.403       .  A
C885        C890   1.403       .  A
C885        H892   1.085       .  S
C886        C887   1.418       .  A
C887        C888   1.405       .  A
C887        C894   1.509       .  S
C888        C889   1.404       .  A
C888        H893   1.086       .  S
C889        C890   1.419       .  A
C890        C891   1.508       .  S
C891        H895   1.111       .  S
C891        H896   1.109   1_655  S
C891        H897   1.111       .  S
C894        H898   1.110       .  S
C894        H899   1.109       .  S
C894        H900   1.111       .  S
C901        C902   1.405       .  A
C901        C906   1.401       .  A
C901        H908   1.082       .  S
C902        C903   1.415       .  A
C903        C904   1.405       .  A
C903        C910   1.507       .  S
C904        C905   1.408       .  A
C904        H909   1.081       .  S
C905        C906   1.416       .  A
C906        C907   1.509       .  S
C907        H911   1.111       .  S
C907        H912   1.109       .  S
C907        H913   1.111       .  S
C910        H914   1.110       .  S
C910        H915   1.110       .  S
C910        H916   1.111       .  S
C917        C918   1.402       .  A
C917        C922   1.398       .  A
C917        H924   1.085       .  S
C918        C919   1.413       .  A
C919        C920   1.411       .  A
C919        C926   1.505       .  S
C920        C921   1.404       .  A
C920        H925   1.083       .  S
C921        C922   1.411       .  A
C922        C923   1.509       .  S
C923        H927   1.111       .  S
C923        H928   1.109   1_455  S
C923        H929   1.110       .  S
C926        H930   1.110   1_455  S
C926        H931   1.110       .  S
C926        H932   1.111       .  S
C933        C934   1.406       .  A
C933        C938   1.401       .  A
C933        H940   1.087       .  S
C934        C935   1.419   1_655  A
C935        C936   1.403       .  A
C935        C942   1.508       .  S
C936        C937   1.405   1_455  A
C936        H941   1.086       .  S
C937        C938   1.416       .  A
C938        C939   1.509       .  S
C939        H943   1.111       .  S
C939        H944   1.110       .  S
C939        H945   1.110       .  S
C942        H946   1.107       .  S
C942        H947   1.111       .  S
C942        H948   1.110       .  S
C949        C950   1.409       .  A
C949        C954   1.409       .  A
C949        H956   1.088   1_565  S
C950        C951   1.419       .  A
C951        C952   1.402       .  A
C951        C958   1.509       .  S
C952        C953   1.405       .  A
C952        H957   1.087       .  S
C953        C954   1.416       .  A
C954        C955   1.507   1_565  S
C955        H959   1.111       .  S
C955        H960   1.110   1_545  S
C955        H961   1.110       .  S
C958        H962   1.110       .  S
C958        H963   1.110       .  S
C958        H964   1.111       .  S
C965        C966   1.407       .  A
C965        C970   1.409       .  A
C965        H972   1.085   1_565  S
C966        C967   1.424       .  A
C967        C968   1.404       .  A
C967        C974   1.510       .  S
C968        C969   1.401       .  A
C968        H973   1.086       .  S
C969        C970   1.419       .  A
C970        C971   1.508   1_565  S
C971        H975   1.111       .  S
C971        H976   1.109   1_545  S
C971        H977   1.111       .  S
C974        H978   1.110       .  S
C974        H979   1.110       .  S
C974        H980   1.111       .  S
C981        C982   1.402       .  A
C981        C986   1.403       .  A
C981        H988   1.085   1_565  S
C982        C983   1.415       .  A
C983        C984   1.403       .  A
C983        C990   1.509       .  S
C984        C985   1.406       .  A
C984        H989   1.086       .  S
C985        C986   1.419       .  A
C986        C987   1.509   1_565  S
C987        H991   1.111       .  S
C987        H992   1.110       .  S
C987        H993   1.111       .  S
C990        H994   1.110       .  S
C990        H995   1.110       .  S
C990        H996   1.111       .  S
C997        C998   1.409       .  A
C997       C1002   1.404       .  A
C997       H1004   1.085       .  S
C998        C999   1.416       .  A
C999       C1000   1.403       .  A
C999       C1006   1.509       .  S
C1000      C1001   1.408       .  A
C1000      H1005   1.083       .  S
C1001      C1002   1.415       .  A
C1002      C1003   1.507   1_565  S
C1003      H1007   1.111       .  S
C1003      H1008   1.110       .  S
C1003      H1009   1.110   1_545  S
C1006      H1010   1.110       .  S
C1006      H1011   1.110       .  S
C1006      H1012   1.111       .  S
C1013      C1014   1.404       .  A
C1013      C1018   1.409       .  A
C1013      H1020   1.084       .  S
C1014      C1015   1.412       .  A
C1015      C1016   1.399       .  A
C1015      C1022   1.506       .  S
C1016      C1017   1.401       .  A
C1016      H1021   1.085       .  S
C1017      C1018   1.413       .  A
C1018      C1019   1.505       .  S
C1019      H1023   1.111       .  S
C1019      H1024   1.110   1_565  S
C1019      H1025   1.111       .  S
C1022      H1026   1.108   1_565  S
C1022      H1027   1.108       .  S
C1022      H1028   1.111       .  S
C1029      C1030   1.405       .  A
C1029      C1034   1.405       .  A
C1029      H1036   1.084       .  S
C1030      C1031   1.413       .  A
C1031      C1032   1.407       .  A
C1031      C1038   1.506       .  S
C1032      C1033   1.410       .  A
C1032      H1037   1.085       .  S
C1033      C1034   1.419       .  A
C1034      C1035   1.508       .  S
C1035      H1039   1.111       .  S
C1035      H1040   1.110       .  S
C1035      H1041   1.110       .  S
C1038      H1042   1.110       .  S
C1038      H1043   1.109   1_565  S
C1038      H1044   1.111       .  S
C1045      C1046   1.405       .  A
C1045      C1050   1.407   1_545  A
C1045      H1052   1.086   1_545  S
C1046      C1047   1.417       .  A
C1047      C1048   1.406       .  A
C1047      C1054   1.508       .  S
C1048      C1049   1.408       .  A
C1048      H1053   1.084       .  S
C1049      C1050   1.419   1_545  A
C1050      C1051   1.506       .  S
C1051      H1055   1.111       .  S
C1051      H1056   1.110   1_565  S
C1051      H1057   1.109       .  S
C1054      H1058   1.111       .  S
C1054      H1059   1.110       .  S
C1054      H1060   1.111       .  S
C1061      C1062   1.403       .  A
C1061      C1066   1.404       .  A
C1061      H1068   1.084   1_565  S
C1062      C1063   1.416       .  A
C1063      C1064   1.403       .  A
C1063      C1070   1.508       .  S
C1064      C1065   1.404       .  A
C1064      H1069   1.086       .  S
C1065      C1066   1.419       .  A
C1066      C1067   1.507   1_565  S
C1067      H1071   1.110       .  S
C1067      H1072   1.107       .  S
C1067      H1073   1.110       .  S
C1070      H1074   1.109       .  S
C1070      H1075   1.110       .  S
C1070      H1076   1.111       .  S
C1077      C1078   1.405       .  A
C1077      C1082   1.403       .  A
C1077      H1084   1.087       .  S
C1078      C1079   1.424       .  A
C1079      C1080   1.410       .  A
C1079      C1086   1.507       .  S
C1080      C1081   1.402       .  A
C1080      H1085   1.085       .  S
C1081      C1082   1.418       .  A
C1082      C1083   1.510       .  S
C1083      H1087   1.111       .  S
C1083      H1088   1.110       .  S
C1083      H1089   1.109       .  S
C1086      H1090   1.110       .  S
C1086      H1091   1.110       .  S
C1086      H1092   1.111       .  S
C1093      C1094   1.409       .  A
C1093      C1098   1.401       .  A
C1093      H1100   1.083       .  S
C1094      C1095   1.416       .  A
C1095      C1096   1.407       .  A
C1095      C1102   1.507       .  S
C1096      C1097   1.407       .  A
C1096      H1101   1.085       .  S
C1097      C1098   1.412       .  A
C1098      C1099   1.508       .  S
C1099      H1103   1.111       .  S
C1099      H1104   1.109       .  S
C1099      H1105   1.111       .  S
C1102      H1106   1.110       .  S
C1102      H1107   1.110       .  S
C1102      H1108   1.110       .  S
C1109      C1110   1.406       .  A
C1109      C1114   1.401       .  A
C1109      H1116   1.084       .  S
C1110      C1111   1.417       .  A
C1111      C1112   1.403       .  A
C1111      C1118   1.508       .  S
C1112      C1113   1.406       .  A
C1112      H1117   1.085       .  S
C1113      C1114   1.418       .  A
C1114      C1115   1.509       .  S
C1115      H1119   1.111       .  S
C1115      H1120   1.110       .  S
C1115      H1121   1.110       .  S
C1118      H1122   1.110       .  S
C1118      H1123   1.110       .  S
C1118      H1124   1.111       .  S
C1125      C1126   1.404       .  A
C1125      C1130   1.405       .  A
C1125      H1132   1.082       .  S
C1126      C1127   1.414       .  A
C1127      C1128   1.401       .  A
C1127      C1134   1.509       .  S
C1128      C1129   1.403       .  A
C1128      H1133   1.085       .  S
C1129      C1130   1.416       .  A
C1130      C1131   1.509       .  S
C1131      H1135   1.111       .  S
C1131      H1136   1.111       .  S
C1131      H1137   1.110       .  S
C1134      H1138   1.108       .  S
C1134      H1139   1.111       .  S
C1134      H1140   1.111       .  S
C1141      C1142   1.407       .  A
C1141      C1146   1.401       .  A
C1141      H1148   1.087       .  S
C1142      C1143   1.418       .  A
C1143      C1144   1.407       .  A
C1143      C1150   1.507       .  S
C1144      C1145   1.407       .  A
C1144      H1149   1.088       .  S
C1145      C1146   1.416       .  A
C1146      C1147   1.509       .  S
C1147      H1151   1.111       .  S
C1147      H1152   1.110       .  S
C1147      H1153   1.110       .  S
C1150      H1154   1.110       .  S
C1150      H1155   1.110       .  S
C1150      H1156   1.111       .  S
C1157      C1158   1.403       .  A
C1157      C1162   1.410       .  A
C1157      H1164   1.086       .  S
C1158      C1159   1.414       .  A
C1159      C1160   1.399       .  A
C1159      C1166   1.510       .  S
C1160      C1161   1.407       .  A
C1160      H1165   1.088       .  S
C1161      C1162   1.420       .  A
C1162      C1163   1.505       .  S
C1163      H1167   1.111       .  S
C1163      H1168   1.109       .  S
C1163      H1169   1.109       .  S
C1166      H1170   1.109       .  S
C1166      H1171   1.110       .  S
C1166      H1172   1.111       .  S
C1173      C1174   1.406       .  A
C1173      C1178   1.403       .  A
C1173      H1180   1.083       .  S
C1174      C1175   1.418       .  A
C1175      C1176   1.409       .  A
C1175      C1182   1.507       .  S
C1176      C1177   1.408       .  A
C1176      H1181   1.085       .  S
C1177      C1178   1.418       .  A
C1178      C1179   1.509       .  S
C1179      H1183   1.111       .  S
C1179      H1184   1.110       .  S
C1179      H1185   1.110       .  S
C1182      H1186   1.109       .  S
C1182      H1187   1.110       .  S
C1182      H1188   1.111       .  S
C1189      C1190   1.407       .  A
C1189      C1194   1.403       .  A
C1189      H1196   1.086       .  S
C1190      C1191   1.417       .  A
C1191      C1192   1.402       .  A
C1191      C1198   1.508       .  S
C1192      C1193   1.403       .  A
C1192      H1197   1.085       .  S
C1193      C1194   1.414       .  A
C1194      C1195   1.507       .  S
C1195      H1199   1.111       .  S
C1195      H1200   1.110       .  S
C1195      H1201   1.110       .  S
C1198      H1202   1.111       .  S
C1198      H1203   1.109       .  S
C1198      H1204   1.111       .  S
C1205      C1206   1.402       .  A
C1205      C1210   1.410       .  A
C1205      H1212   1.084       .  S
C1206      C1207   1.411       .  A
C1207      C1208   1.396       .  A
C1207      C1214   1.508       .  S
C1208      C1209   1.402       .  A
C1208      H1213   1.087       .  S
C1209      C1210   1.417       .  A
C1210      C1211   1.505       .  S
C1211      H1215   1.111       .  S
C1211      H1216   1.110       .  S
C1211      H1217   1.110       .  S
C1214      H1218   1.108       .  S
C1214      H1219   1.109       .  S
C1214      H1220   1.111       .  S
C1221      C1222   1.404       .  A
C1221      C1226   1.404       .  A
C1221      H1228   1.081       .  S
C1222      C1223   1.414       .  A
C1223      C1224   1.400       .  A
C1223      C1230   1.509       .  S
C1224      C1225   1.404       .  A
C1224      H1229   1.082       .  S
C1225      C1226   1.416       .  A
C1226      C1227   1.506       .  S
C1227      H1231   1.111       .  S
C1227      H1232   1.109       .  S
C1227      H1233   1.108       .  S
C1230      H1234   1.111       .  S
C1230      H1235   1.109       .  S
C1230      H1236   1.111       .  S
C1237      C1238   1.409       .  A
C1237      C1242   1.405       .  A
C1237      H1244   1.083       .  S
C1238      C1239   1.419       .  A
C1239      C1240   1.407       .  A
C1239      C1246   1.508       .  S
C1240      C1241   1.407       .  A
C1240      H1245   1.085       .  S
C1241      C1242   1.414       .  A
C1242      C1243   1.508       .  S
C1243      H1247   1.111       .  S
C1243      H1248   1.109       .  S
C1243      H1249   1.110       .  S
C1246      H1250   1.110       .  S
C1246      H1251   1.110       .  S
C1246      H1252   1.111       .  S
C1253      C1254   1.405       .  A
C1253      C1258   1.403       .  A
C1253      H1260   1.081       .  S
C1254      C1255   1.420       .  A
C1255      C1256   1.402       .  A
C1255      C1262   1.509       .  S
C1256      C1257   1.403       .  A
C1256      H1261   1.083       .  S
C1257      C1258   1.416       .  A
C1258      C1259   1.508       .  S
C1259      H1263   1.110       .  S
C1259      H1264   1.111       .  S
C1259      H1265   1.110       .  S
C1262      H1266   1.110       .  S
C1262      H1267   1.110       .  S
C1262      H1268   1.111       .  S
C1269      C1270   1.403       .  A
C1269      C1274   1.407       .  A
C1269      H1276   1.085       .  S
C1270      C1271   1.417       .  A
C1271      C1272   1.401       .  A
C1271      C1278   1.510       .  S
C1272      C1273   1.403       .  A
C1272      H1277   1.086       .  S
C1273      C1274   1.419       .  A
C1274      C1275   1.507       .  S
C1275      H1279   1.111       .  S
C1275      H1280   1.109       .  S
C1275      H1281   1.110       .  S
C1278      H1282   1.109       .  S
C1278      H1283   1.109       .  S
C1278      H1284   1.111       .  S
C1285      C1286   1.405       .  A
C1285      C1290   1.402       .  A
C1285      H1292   1.085       .  S
C1286      C1287   1.417       .  A
C1287      C1288   1.404       .  A
C1287      C1294   1.508       .  S
C1288      C1289   1.406       .  A
C1288      H1293   1.087       .  S
C1289      C1290   1.418       .  A
C1290      C1291   1.509       .  S
C1291      H1295   1.111       .  S
C1291      H1296   1.110       .  S
C1291      H1297   1.110       .  S
C1294      H1298   1.110       .  S
C1294      H1299   1.110       .  S
C1294      H1300   1.111       .  S
C1301      C1302   1.402       .  A
C1301      C1306   1.398       .  A
C1301      H1308   1.085       .  S
C1302      C1303   1.414       .  A
C1303      C1304   1.410       .  A
C1303      C1310   1.505       .  S
C1304      C1305   1.404       .  A
C1304      H1309   1.084       .  S
C1305      C1306   1.414       .  A
C1306      C1307   1.510       .  S
C1307      H1311   1.111       .  S
C1307      H1312   1.110       .  S
C1307      H1313   1.108       .  S
C1310      H1314   1.110       .  S
C1310      H1315   1.110       .  S
C1310      H1316   1.111       .  S
C1317      C1318   1.404       .  A
C1317      C1322   1.410       .  A
C1317      H1324   1.087       .  S
C1318      C1319   1.421       .  A
C1319      C1320   1.403       .  A
C1319      C1326   1.510       .  S
C1320      C1321   1.403       .  A
C1320      H1325   1.087       .  S
C1321      C1322   1.422       .  A
C1322      C1323   1.508       .  S
C1323      H1327   1.112       .  S
C1323      H1328   1.109       .  S
C1323      H1329   1.111       .  S
C1326      H1330   1.109       .  S
C1326      H1331   1.110       .  S
C1326      H1332   1.111       .  S
C1333      C1334   1.403       .  A
C1333      C1338   1.402       .  A
C1333      H1340   1.086       .  S
C1334      C1335   1.416       .  A
C1335      C1336   1.400       .  A
C1335      C1342   1.509       .  S
C1336      C1337   1.403       .  A
C1336      H1341   1.086       .  S
C1337      C1338   1.414       .  A
C1338      C1339   1.508       .  S
C1339      H1343   1.111       .  S
C1339      H1344   1.109       .  S
C1339      H1345   1.111       .  S
C1342      H1346   1.111       .  S
C1342      H1347   1.111       .  S
C1342      H1348   1.104       .  S
C1349      C1350   1.407       .  A
C1349      C1354   1.405       .  A
C1349      H1356   1.084       .  S
C1350      C1351   1.419       .  A
C1351      C1352   1.403       .  A
C1351      C1358   1.509       .  S
C1352      C1353   1.404       .  A
C1352      H1357   1.084       .  S
C1353      C1354   1.416       .  A
C1354      C1355   1.508       .  S
C1355      H1359   1.111       .  S
C1355      H1360   1.111       .  S
C1355      H1361   1.110       .  S
C1358      H1362   1.110       .  S
C1358      H1363   1.110       .  S
C1358      H1364   1.111       .  S
C1365      C1366   1.402       .  A
C1365      C1370   1.407       .  A
C1365      H1372   1.084       .  S
C1366      C1367   1.419       .  A
C1367      C1368   1.404       .  A
C1367      C1374   1.509       .  S
C1368      C1369   1.403       .  A
C1368      H1373   1.084       .  S
C1369      C1370   1.421       .  A
C1370      C1371   1.509       .  S
C1371      H1375   1.111       .  S
C1371      H1376   1.111       .  S
C1371      H1377   1.109       .  S
C1374      H1378   1.111       .  S
C1374      H1379   1.109       .  S
C1374      H1380   1.111       .  S
C1381      C1382   1.407       .  A
C1381      C1386   1.403       .  A
C1381      H1388   1.084       .  S
C1382      C1383   1.422       .  A
C1383      C1384   1.409       .  A
C1383      C1390   1.507       .  S
C1384      C1385   1.402       .  A
C1384      H1389   1.083       .  S
C1385      C1386   1.414       .  A
C1386      C1387   1.508       .  S
C1387      H1391   1.111       .  S
C1387      H1392   1.110       .  S
C1387      H1393   1.108       .  S
C1390      H1394   1.110       .  S
C1390      H1395   1.110       .  S
C1390      H1396   1.111       .  S
C1397      C1398   1.407       .  A
C1397      C1402   1.408       .  A
C1397      H1404   1.068       .  S
C1398      C1399   1.416       .  A
C1399      C1400   1.402       .  A
C1399      C1406   1.509       .  S
C1400      C1401   1.405       .  A
C1400      H1405   1.083       .  S
C1401      C1402   1.420       .  A
C1402      C1403   1.510       .  S
C1403      H1407   1.109       .  S
C1403      H1408   1.111       .  S
C1403      H1409   1.111       .  S
C1406      H1410   1.111       .  S
C1406      H1411   1.109       .  S
C1406      H1412   1.110       .  S
C1413      C1414   1.405       .  A
C1413      C1418   1.404       .  A
C1413      H1420   1.086       .  S
C1414      C1415   1.418       .  A
C1415      C1416   1.401       .  A
C1415      C1422   1.509       .  S
C1416      C1417   1.405       .  A
C1416      H1421   1.085       .  S
C1417      C1418   1.418       .  A
C1418      C1419   1.509       .  S
C1419      H1423   1.111       .  S
C1419      H1424   1.110       .  S
C1419      H1425   1.110       .  S
C1422      H1426   1.111       .  S
C1422      H1427   1.110       .  S
C1422      H1428   1.111       .  S
