geometry optimzed in LAMMPS
_audit_creation_date              2020-11-30 
_audit_creation_method            'lammps2cif' 
_symmetry_space_group_name_H-M    'P1' 
_symmetry_Int_Tables_number       1 
_symmetry_cell_setting            triclinic 
loop_ 
_symmetry_equiv_pos_as_xyz 
  x,y,z 
_cell_length_a                    53.87490727 
_cell_length_b                    53.886785569324054 
_cell_length_c                    53.88710378430128 
_cell_angle_alpha                 90.01702945680645 
_cell_angle_beta                  90.03240796627269 
_cell_angle_gamma                 89.96200352681683 
loop_ 
_atom_site_label 
_atom_site_type_symbol 
_atom_site_fract_x 
_atom_site_fract_y 
_atom_site_fract_z 
_atom_site_charge 
Zr1        Zr  0.74992357  0.56234829  0.97826014     2.17500
O2          O  0.73315371  0.56784163  0.02003976    -0.51100
O3          O  0.70585156  0.55772593  0.97276821    -0.74300
O4          O  0.74412944  0.60572009  0.98921641    -0.81000
O5          O  0.76921469  0.49663525  0.99422374    -0.82800
O6          O  0.76327033  0.63064174  0.96105397    -0.78400
O7          O  0.75648509  0.53300352  0.01158186    -0.90100
O8          O  0.69824743  0.56438218  0.93193271    -0.76000
O9          O  0.74621302  0.58589391  0.94112318    -0.85500
O10         O  0.73905254  0.53164165  0.94790543    -0.85200
O11         O  0.78956366  0.58235842  0.97217924    -0.72000
O12         O  0.78333888  0.53369215  0.97677092    -0.84100
Zr13       Zr  0.81002393  0.54429147  0.90309107     2.26400
Zr14       Zr  0.78612565  0.60376029  0.93319752     2.06300
Zr15       Zr  0.77309778  0.50255601  0.94752284     2.10000
Zr16       Zr  0.73659698  0.55619653  0.91044717     1.78800
O17         O  0.80333037  0.46893518  0.94751631    -0.92900
O18         O  0.72370896  0.59501788  0.89110710    -0.40700
O19         O  0.77053371  0.52896779  0.91333978    -0.77300
O20         O  0.77662234  0.57439986  0.90117184    -0.96000
O21         O  0.81970862  0.57486717  0.93332408    -0.89300
O22         O  0.81351082  0.52066969  0.94049365    -0.92200
C23         C  0.69151500  0.56249520  0.95456841     1.01600
C24         C  0.76360719  0.51041001  0.01336048     1.14500
C25         C  0.74962984  0.62697324  0.98017314     1.05300
O26         O  0.76405130  0.63188605  0.90555082    -0.94300
O27         O  0.81606801  0.61465666  0.90110724    -0.90100
O28         O  0.82458006  0.57940854  0.87945872    -0.83200
C29         C  0.82656759  0.60271764  0.88336108     1.11900
O30         O  0.81987125  0.54892496  0.01587377    -0.96300
Zr31       Zr  0.82261671  0.55218865  0.97087269     1.88900
O32         O  0.85341300  0.53616158  0.91295738    -0.72900
O33         O  0.81237310  0.63638021  0.95030607    -0.52200
O34         O  0.84597770  0.58409918  0.99273988    -0.96900
O35         O  0.84667300  0.51580874  0.98281016    -0.54100
O36         O  0.86112395  0.55659522  0.94878256    -0.73500
C37         C  0.86809577  0.54636887  0.92861597     0.98900
O38         O  0.82833290  0.52717209  0.86529482    -0.62300
O39         O  0.74447598  0.46779489  0.95145636    -0.57100
O40         O  0.79051340  0.51223702  0.87767408    -0.93800
O41         O  0.76467547  0.48999483  0.90268275    -0.92200
O42         O  0.70692936  0.52637937  0.89400363    -0.92500
O43         O  0.73430915  0.54607768  0.86645093    -0.91300
C44         C  0.77342281  0.49594019  0.88083839     1.17700
H45         H  0.72388125  0.52273696  0.95132481     0.33700
H46         H  0.77606986  0.58242016  0.88514829     0.44500
H47         H  0.82641510  0.50832951  0.93936526     0.38000
H48         H  0.79275270  0.59401875  0.98535755     0.34500
H49         H  0.70905404  0.59053351  0.88097185     0.26300
H50         H  0.82920266  0.62903962  0.95087824     0.32300
H51         H  0.84677652  0.59814866  0.98094490     0.38200
H52         H  0.70810971  0.51195358  0.90528272     0.32600
H53         H  0.73541050  0.47081556  0.96712120     0.31500
H54         H  0.80176967  0.46136352  0.96417558     0.33200
H55         H  0.83466315  0.50486029  0.99135602     0.32100
H56         H  0.74469650  0.55872663  0.85813436     0.36100
H57         H  0.82329690  0.53856251  0.85179432     0.28900
H58         H  0.71758520  0.57743415  0.01802851     0.33100
H59         H  0.80765365  0.56178431  0.02074474     0.36000
H60         H  0.73196349  0.47053024  0.93827780     0.28600
H61         H  0.84647186  0.52965830  0.86685574     0.41400
H62         H  0.77077541  0.64851450  0.90952119     0.31500
H63         H  0.71684853  0.60515639  0.90481760     0.39100
H64         H  0.85793564  0.52170546  0.99607244     0.31000
H65         H  0.81332783  0.64916599  0.93713463     0.31000
H66         H  0.74467395  0.57922171  0.02872428     0.31300
Zr67       Zr  0.76955691  0.45227977  0.64319468     2.17500
O68         O  0.76602706  0.45958068  0.59862541    -0.51100
O69         O  0.74120792  0.41746852  0.64280950    -0.74300
O70         O  0.79268874  0.42235452  0.61948537    -0.81000
O71         O  0.73334052  0.50965613  0.65323408    -0.82800
O72         O  0.82889045  0.41318513  0.63926741    -0.78400
O73         O  0.73627066  0.47726276  0.62639048    -0.90100
O74         O  0.74416226  0.39847512  0.68034145    -0.76000
O75         O  0.79170056  0.42502713  0.66970391    -0.85500
O76         O  0.74609662  0.45256063  0.68088848    -0.85200
O77         O  0.81100558  0.46889145  0.64577182    -0.72000
O78         O  0.77008593  0.49359900  0.65829122    -0.84100
Zr79       Zr  0.81013512  0.48405678  0.72568899     2.26400
Zr80       Zr  0.83262198  0.44187948  0.67402586     2.06300
Zr81       Zr  0.74667535  0.49468374  0.69565119     2.10000
Zr82       Zr  0.76898967  0.42503619  0.70718633     1.78800
O83         O  0.73442207  0.53726252  0.70474116    -0.92900
O84         O  0.79051886  0.38536270  0.71039962    -0.40700
O85         O  0.76948487  0.46690306  0.72127748    -0.77300
O86         O  0.81051888  0.44090719  0.71294499    -0.96000
O87         O  0.83193076  0.48429443  0.68731328    -0.89300
O88         O  0.78753238  0.51191782  0.69952234    -0.92200
C89         C  0.73581577  0.40013283  0.65812100     1.01600
C90         C  0.73059361  0.49977729  0.63134822     1.14500
C91         C  0.81275316  0.40999958  0.62202304     1.05300
O92         O  0.84967228  0.40632284  0.69614987    -0.94300
O93         O  0.86722578  0.46250033  0.69495951    -0.90100
O94         O  0.84888445  0.46248271  0.73173349    -0.83200
C95         C  0.86722725  0.46792800  0.71806043     1.11900
O96         O  0.81134300  0.52003118  0.61662433    -0.96300
Zr97       Zr  0.80991913  0.51107092  0.66088646     1.88900
O98         O  0.82741864  0.52570380  0.72696353    -0.72900
O99         O  0.86794002  0.43889801  0.64595034    -0.52200
O100        O  0.85128067  0.52049285  0.64535851    -0.96900
O101        O  0.78466006  0.54709852  0.65044942    -0.54100
O102        O  0.82888615  0.54115525  0.68775437    -0.73500
C103        C  0.83237256  0.54269882  0.71113388     0.98900
O104        O  0.82597648  0.49015618  0.76771491    -0.62300
O105        O  0.70255260  0.48509102  0.69765403    -0.57100
O106        O  0.78110425  0.48798892  0.75931506    -0.93800
O107        O  0.74300271  0.49592242  0.74271412    -0.92200
O108        O  0.72959656  0.41721813  0.72784741    -0.92500
O109        O  0.76901689  0.41577882  0.75143842    -0.91300
C110        C  0.75792239  0.49245007  0.76152843     1.17700
H111        H  0.72916453  0.44706002  0.67844548     0.33700
H112        H  0.81877035  0.43042569  0.72499946     0.44500
H113        H  0.78589251  0.52844278  0.70639626     0.38000
H114        H  0.81884921  0.46837215  0.62969482     0.34500
H115        H  0.79781793  0.38506904  0.72726189     0.26300
H116        H  0.87647067  0.45511512  0.64716929     0.32300
H117        H  0.86009196  0.50437533  0.64551870     0.38200
H118        H  0.72067290  0.43326086  0.72702096     0.32600
H119        H  0.69459087  0.50097302  0.70235415     0.31500
H120        H  0.72790926  0.54383753  0.68885185     0.33200
H121        H  0.79639677  0.56122056  0.65059606     0.32100
H122        H  0.77675089  0.43048740  0.75927444     0.36100
H123        H  0.82841149  0.47327871  0.77456341     0.28900
H124        H  0.76018463  0.44372855  0.59138460     0.33100
H125        H  0.79719826  0.51068872  0.60954650     0.36000
H126        H  0.69754374  0.48248258  0.68015302     0.28600
H127        H  0.84296786  0.49690441  0.76574373     0.41400
H128        H  0.84095602  0.39183464  0.68896316     0.31500
H129        H  0.77712857  0.37280108  0.71091988     0.39100
H130        H  0.77400131  0.54981827  0.66516546     0.31000
H131        H  0.87937084  0.42699318  0.65405978     0.31000
H132        H  0.78325993  0.46155385  0.59255370     0.31300
Zr133      Zr  0.68767524  0.51075378  0.23028265     2.17500
O134        O  0.68053320  0.49619972  0.27262152    -0.51100
O135        O  0.68268337  0.46622434  0.22603309    -0.74300
O136        O  0.64551233  0.51649924  0.24365386    -0.81000
O137        O  0.75592988  0.52175734  0.24457813    -0.82800
O138        O  0.62312782  0.52312385  0.20890615    -0.78400
O139        O  0.71878881  0.51236205  0.26234656    -0.90100
O140        O  0.68089315  0.45606431  0.18517254    -0.76000
O141        O  0.66368414  0.50852273  0.19332868    -0.85500
O142        O  0.71547731  0.49406979  0.20013587    -0.85200
O143        O  0.67382217  0.55276913  0.22339122    -0.72000
O144        O  0.72071781  0.53970409  0.22689269    -0.84100
Zr145      Zr  0.71272792  0.56383106  0.15259732     2.26400
Zr146      Zr  0.65092638  0.55026813  0.18531612     2.06300
Zr147      Zr  0.74935143  0.52279743  0.19798028     2.10000
Zr148      Zr  0.69115023  0.49333302  0.16273044     1.78800
O149        O  0.79003525  0.54249925  0.19887546    -0.92900
O150        O  0.65239649  0.47848849  0.14469811    -0.40700
O151        O  0.72383509  0.52236037  0.16230221    -0.77300
O152        O  0.67803921  0.53522075  0.15322714    -0.96000
O153        O  0.68449360  0.57957574  0.18252260    -0.89300
O154        O  0.73713088  0.56490699  0.18969491    -0.92200
C155        C  0.68008103  0.45071317  0.20824780     1.01600
C156        C  0.74185643  0.51760555  0.26383341     1.14500
C157        C  0.62563849  0.51467182  0.23103676     1.05300
O158        O  0.61538973  0.54061553  0.15910959    -0.94300
O159        O  0.64260524  0.58074270  0.15315020    -0.90100
O160        O  0.67906700  0.58603745  0.13254562    -0.83200
C161        C  0.65600439  0.59048771  0.13608029     1.11900
O162        O  0.69892556  0.58705915  0.26337212    -0.96300
Zr163      Zr  0.70816261  0.58126230  0.21949530     1.88900
O164        O  0.73395861  0.60319896  0.15921562    -0.72900
O165        O  0.62612163  0.57919401  0.20962623    -0.52200
O166        O  0.67772156  0.61434447  0.22437229    -0.96900
O167        O  0.74367907  0.59343339  0.24476205    -0.54100
O168        O  0.72768494  0.61610397  0.19881495    -0.73500
C169        C  0.73647851  0.61886394  0.17694594     0.98900
O170        O  0.72270251  0.57507159  0.10986103    -0.62300
O171        O  0.77013424  0.48322152  0.20489327    -0.57100
O172        O  0.74436490  0.54260796  0.12834151    -0.93800
O173        O  0.76484219  0.51589978  0.15401638    -0.92200
O174        O  0.72062764  0.46095285  0.15142702    -0.92500
O175        O  0.69713627  0.49140589  0.11792159    -0.91300
C176        C  0.76018263  0.52519960  0.13213242     1.17700
H177        H  0.72177810  0.47791607  0.20450162     0.33700
H178        H  0.66960678  0.53544457  0.13736680     0.44500
H179        H  0.75219938  0.57459264  0.18850261     0.38000
H180        H  0.66314602  0.55840901  0.23677682     0.34500
H181        H  0.63961991  0.48193124  0.15744206     0.26300
H182        H  0.63467569  0.59532734  0.20780817     0.32300
H183        H  0.67882917  0.62424215  0.20894589     0.38200
H184        H  0.73711419  0.46886337  0.15308525     0.32600
H185        H  0.77212183  0.47597955  0.18812252     0.31500
H186        H  0.79549650  0.54299015  0.18133263     0.33200
H187        H  0.75783962  0.59386566  0.23305469     0.32100
H188        H  0.71509383  0.49432947  0.11532148     0.36100
H189        H  0.70859855  0.56921795  0.09962491     0.28900
H190        H  0.66724222  0.48356854  0.27143701     0.33100
H191        H  0.69621646  0.57007850  0.26983827     0.36000
H192        H  0.78716607  0.48771754  0.21007055     0.28600
H193        H  0.72175820  0.59341870  0.10923449     0.41400
H194        H  0.62246242  0.53158884  0.14475693     0.31500
H195        H  0.64860206  0.49024683  0.13111532     0.39100
H196        H  0.74712701  0.57891097  0.25545872     0.31000
H197        H  0.61058014  0.58113799  0.20001108     0.31000
H198        H  0.67289443  0.51029351  0.28164937     0.31300
Zr199      Zr  0.69431439  0.47003647  0.41125536     2.17500
O200        O  0.66896763  0.49063693  0.37998217    -0.51100
O201        O  0.65053022  0.46231873  0.42101794    -0.74300
O202        O  0.68588978  0.43308507  0.38688397    -0.81000
O203        O  0.73525585  0.52601740  0.40408378    -0.82800
O204        O  0.69191766  0.40152249  0.41411819    -0.78400
O205        O  0.71041850  0.49984943  0.38180840    -0.90100
O206        O  0.64455688  0.46047406  0.46266528    -0.76000
O207        O  0.68594840  0.44399514  0.44536222    -0.85500
O208        O  0.69034791  0.49755003  0.44590148    -0.85200
O209        O  0.72942856  0.44219301  0.41103098    -0.72000
O210        O  0.73202157  0.48610289  0.42184342    -0.84100
Zr211      Zr  0.75738177  0.46181020  0.48724921     2.26400
Zr212      Zr  0.72007780  0.41654079  0.44621917     2.06300
Zr213      Zr  0.73045591  0.51710903  0.44989050     2.10000
Zr214      Zr  0.68385652  0.47020939  0.48064336     1.78800
O215        O  0.76146690  0.54994937  0.45045789    -0.92900
O216        O  0.66347338  0.43993000  0.50732658    -0.40700
O217        O  0.72305275  0.48908499  0.48265937    -0.77300
O218        O  0.71766794  0.44105715  0.48357744    -0.96000
O219        O  0.75901748  0.43691458  0.45061457    -0.89300
O220        O  0.76614889  0.49029607  0.45375126    -0.92200
C221        C  0.63709177  0.45857446  0.44033997     1.01600
C222        C  0.72639318  0.51743296  0.38326042     1.14500
C223        C  0.68332842  0.41047201  0.39379157     1.05300
O224        O  0.69023191  0.38820887  0.46497521    -0.94300
O225        O  0.74089075  0.39364538  0.47832365    -0.90100
O226        O  0.75980316  0.42033154  0.50510675    -0.83200
C227        C  0.75319508  0.39863007  0.49801385     1.11900
O228        O  0.76831897  0.46522039  0.37205760    -0.96300
Zr229      Zr  0.76822915  0.46442869  0.41728880     1.88900
O230        O  0.80091892  0.46442811  0.47613708    -0.72900
O231        O  0.74123010  0.38370227  0.42362659    -0.52200
O232        O  0.79078890  0.42838986  0.40177822    -0.96900
O233        O  0.78851210  0.50252022  0.40337510    -0.54100
O234        O  0.80875633  0.46046305  0.43670479    -0.73500
C235        C  0.80905350  0.45125929  0.45834636     0.98900
O236        O  0.78058774  0.46084166  0.52626173    -0.62300
O237        O  0.70019463  0.55059409  0.44720867    -0.57100
O238        O  0.74843733  0.49516697  0.51657129    -0.93800
O239        O  0.73240382  0.52823990  0.49559004    -0.92200
O240        O  0.66039535  0.50792031  0.48919808    -0.92500
O241        O  0.68673440  0.47986361  0.52473962    -0.91300
C242        C  0.73921180  0.51714792  0.51601642     1.17700
H243        H  0.67679426  0.50919680  0.44341933     0.33700
H244        H  0.71447598  0.43067223  0.49790931     0.44500
H245        H  0.78104470  0.50016066  0.45631630     0.38000
H246        H  0.73062163  0.43256131  0.39593852     0.34500
H247        H  0.64740262  0.44764184  0.51185214     0.26300
H248        H  0.72930749  0.36974533  0.42317360     0.32300
H249        H  0.77819251  0.41823959  0.39310762     0.38200
H250        H  0.67315751  0.52099907  0.49112761     0.32600
H251        H  0.70707392  0.56389242  0.45784631     0.31500
H252        H  0.75589776  0.56178049  0.43754316     0.33200
H253        H  0.79584724  0.49886156  0.38695284     0.32100
H254        H  0.69898301  0.46785590  0.53139174     0.36100
H255        H  0.79302309  0.44742847  0.52433669     0.28900
H256        H  0.65632706  0.49999035  0.38952116     0.33100
H257        H  0.75065298  0.46673361  0.36732546     0.36000
H258        H  0.70184972  0.55701947  0.43008005     0.28600
H259        H  0.79069627  0.47619001  0.52631661     0.41400
H260        H  0.68942860  0.39309766  0.48267104     0.31500
H261        H  0.65895663  0.42614085  0.49606921     0.39100
H262        H  0.80310095  0.50441950  0.41443127     0.31000
H263        H  0.74224045  0.38955437  0.40626167     0.31000
H264        H  0.65955651  0.47706972  0.37189446     0.31300
Zr265      Zr  0.09040807  0.69914659  0.54608363     2.17500
O266        O  0.12782906  0.67824694  0.53130740    -0.51100
O267        O  0.07943347  0.65499472  0.54840943    -0.74300
O268        O  0.11691851  0.69131029  0.58171531    -0.81000
O269        O  0.08427116  0.73138288  0.48402793    -0.82800
O270        O  0.09727376  0.70591862  0.61601076    -0.78400
O271        O  0.11160115  0.70948464  0.50777175    -0.90100
O272        O  0.04306878  0.65114054  0.56924170    -0.76000
O273        O  0.06502794  0.69769319  0.58173590    -0.85500
O274        O  0.04998638  0.69139033  0.52931149    -0.85200
O275        O  0.09683195  0.73870884  0.56628121    -0.72000
O276        O  0.07571429  0.73356256  0.52642144    -0.84100
Zr277      Zr  0.01868062  0.76460724  0.55816068     2.26400
Zr278      Zr  0.06884747  0.73746888  0.60100744     2.06300
Zr279      Zr  0.04145665  0.72689122  0.50324921     2.10000
Zr280      Zr  0.02443103  0.69152048  0.56630421     1.78800
O281        O  0.03032041  0.75120681  0.46678688    -0.92900
O282        O  0.02007300  0.68292217  0.61054829    -0.40700
O283        O  0.01613209  0.72501277  0.53909973    -0.77300
O284        O  0.02704519  0.73121450  0.58654799    -0.96000
O285        O  0.05893822  0.77187881  0.57472200    -0.89300
O286        O  0.04413765  0.76716926  0.52193390    -0.92200
C287        C  0.06268272  0.64216458  0.55952210     1.01600
C288        C  0.10660790  0.72349943  0.48923399     1.14500
C289        C  0.11377510  0.69262398  0.60522303     1.05300
O290        O  0.05178641  0.72190353  0.63983975    -0.94300
O291        O  0.04857085  0.77038982  0.62395086    -0.90100
O292        O  0.01635380  0.78216634  0.59928554    -0.83200
C293        C  0.02913607  0.78326839  0.61923558     1.11900
O294        O  0.12501083  0.77282735  0.51912604    -0.96300
Zr295      Zr  0.08470473  0.77296652  0.53952615     1.88900
O296        O  0.02509903  0.80631476  0.54369023    -0.72900
O297        O  0.10284895  0.76013404  0.62042340    -0.52200
O298        O  0.11557020  0.79400412  0.56498642    -0.96900
O299        O  0.08718208  0.79457998  0.49983793    -0.54100
O300        O  0.06576607  0.81243416  0.55133717    -0.73500
C301        C  0.04340548  0.82024239  0.54907808     0.98900
O302        O  0.97808330  0.78305964  0.56619651    -0.62300
O303        O  0.03677041  0.69202837  0.47488638    -0.57100
O304        O  0.98162323  0.75305760  0.53540081    -0.93800
O305        O  0.99446986  0.72997663  0.50243753    -0.92200
O306        O  0.99721762  0.66363827  0.54337805    -0.92500
O307        O  0.98021553  0.69133613  0.57569543    -0.91300
C308        C  0.97713986  0.74011913  0.51595526     1.17700
H309        H  0.04889042  0.67598205  0.52004219     0.33700
H310        H  0.01556008  0.73183564  0.60025859     0.44500
H311        H  0.03924451  0.77993570  0.51026568     0.38000
H312        H  0.11387737  0.74052268  0.57163075     0.34500
H313        H  0.00641180  0.67075155  0.61184773     0.26300
H314        H  0.09952575  0.75901081  0.63844933     0.32300
H315        H  0.10999453  0.79130795  0.58226865     0.38200
H316        H  0.00835387  0.65413848  0.53226583     0.32600
H317        H  0.01893025  0.68767179  0.47602040     0.31500
H318        H  0.04631177  0.75555813  0.45892892     0.33200
H319        H  0.07547332  0.80869499  0.50132446     0.32100
H320        H  0.97554553  0.70909180  0.57637815     0.36100
H321        H  0.97223034  0.77561844  0.58193368     0.28900
H322        H  0.12765594  0.66173730  0.53938856     0.33100
H323        H  0.13554752  0.76197070  0.52955492     0.36000
H324        H  0.03858047  0.69942041  0.45816012     0.28600
H325        H  0.98137595  0.80069346  0.57022667     0.41400
H326        H  0.06298501  0.72844231  0.65285485     0.31500
H327        H  0.03515021  0.67344299  0.61511585     0.39100
H328        H  0.07933953  0.78330738  0.48764384     0.31000
H329        H  0.11783816  0.74981103  0.61783037     0.31000
H330        H  0.14184840  0.68706649  0.53930346     0.31300
Zr331      Zr  0.84266362  0.81567491  0.54645573     2.17500
O332        O  0.88494080  0.80670894  0.56009738    -0.51100
O333        O  0.83516065  0.81746453  0.59084471    -0.74300
O334        O  0.86621407  0.85366867  0.55219826    -0.81000
O335        O  0.83651364  0.74931876  0.52382533    -0.82800
O336        O  0.84172745  0.88524276  0.53904817    -0.78400
O337        O  0.86378580  0.77607207  0.54202058    -0.90100
O338        O  0.79574605  0.83093061  0.59766263    -0.76000
O339        O  0.81490250  0.84975059  0.54726553    -0.85500
O340        O  0.80342879  0.79758588  0.55733004    -0.85200
O341        O  0.84517187  0.83303446  0.50525409    -0.72000
O342        O  0.83043287  0.78884922  0.51412724    -0.84100
Zr343      Zr  0.76679664  0.82059582  0.48490766     2.26400
Zr344      Zr  0.81626773  0.86690354  0.50652194     2.06300
Zr345      Zr  0.79347269  0.76847820  0.52492534     2.10000
Zr346      Zr  0.77578530  0.83275524  0.55732503     1.78800
O347        O  0.78583582  0.72827041  0.50575021    -0.92900
O348        O  0.77177949  0.87450855  0.57434767    -0.40700
O349        O  0.76671826  0.80350316  0.52569992    -0.77300
O350        O  0.77570410  0.85119627  0.51640715    -0.96000
O351        O  0.80592279  0.83760216  0.47489386    -0.89300
O352        O  0.79356660  0.78537714  0.48357416    -0.92200
C353        C  0.81727638  0.82406713  0.60506407     1.01600
C354        C  0.85876635  0.75546875  0.53121639     1.14500
C355        C  0.85956240  0.87645371  0.55213630     1.05300
O356        O  0.79559823  0.90621355  0.51523380    -0.94300
O357        O  0.79753812  0.88457281  0.46961136    -0.90100
O358        O  0.76573744  0.85831087  0.46049056    -0.83200
C359        C  0.77872052  0.87783699  0.45670954     1.11900
O360        O  0.87673613  0.79237171  0.47066293    -0.96300
Zr361      Zr  0.83300810  0.80353528  0.47326694     1.88900
O362        O  0.76954378  0.80385381  0.44321545    -0.72900
O363        O  0.85208673  0.88560960  0.48625292    -0.52200
O364        O  0.85314974  0.83280793  0.44527274    -0.96900
O365        O  0.84225296  0.76050411  0.46276626    -0.54100
O366        O  0.81054738  0.79945656  0.43444015    -0.73500
C367        C  0.78759555  0.79983933  0.42829661     0.98900
O368        O  0.72424773  0.83157744  0.47391985    -0.62300
O369        O  0.78954467  0.74519642  0.56349059    -0.57100
O370        O  0.73182690  0.79498353  0.49661356    -0.93800
O371        O  0.74684157  0.76453063  0.52186097    -0.92200
O372        O  0.74861812  0.80948500  0.58487182    -0.92500
O373        O  0.73188506  0.84310359  0.55315349    -0.91300
C374        C  0.72873914  0.77621787  0.51087853     1.17700
H375        H  0.80368027  0.78905447  0.57307880     0.33700
H376        H  0.76362970  0.86445421  0.51555392     0.44500
H377        H  0.78835730  0.77283795  0.47180659     0.38000
H378        H  0.86176375  0.83903874  0.50213276     0.34500
H379        H  0.78842239  0.87858476  0.58099456     0.26300
H380        H  0.84729597  0.88717365  0.46859101     0.32300
H381        H  0.84175649  0.83475719  0.43097399     0.38200
H382        H  0.74887954  0.79236834  0.57820698     0.32600
H383        H  0.77196295  0.74734234  0.56839166     0.31500
H384        H  0.77892395  0.73212125  0.48917172     0.33200
H385        H  0.83513618  0.75801603  0.44601730     0.32100
H386        H  0.73129734  0.86107053  0.54931949     0.36100
H387        H  0.72151486  0.84825439  0.48111289     0.28900
H388        H  0.88637582  0.81419483  0.57680760     0.33100
H389        H  0.88583689  0.80770307  0.47508632     0.36000
H390        H  0.79083582  0.72757482  0.55845903     0.28600
H391        H  0.72434445  0.83419659  0.45571719     0.41400
H392        H  0.79865621  0.90942306  0.53306426     0.31500
H393        H  0.76988269  0.88541755  0.55969717     0.39100
H394        H  0.83144358  0.75054768  0.47380843     0.31000
H395        H  0.85251859  0.90288595  0.49248262     0.31000
H396        H  0.89595837  0.81681226  0.54939433     0.31300
Zr397      Zr  0.59430261  0.80515545  0.43915077     2.17500
O398        O  0.63628900  0.81817610  0.45049763    -0.51100
O399        O  0.58587179  0.84961491  0.43717537    -0.74300
O400        O  0.61761563  0.81419349  0.40154556    -0.81000
O401        O  0.58825682  0.77700618  0.50350299    -0.82800
O402        O  0.59917234  0.79591348  0.36827588    -0.78400
O403        O  0.61407299  0.80045126  0.47953067    -0.90100
O404        O  0.54842994  0.85442444  0.41843747    -0.76000
O405        O  0.56628455  0.80719993  0.40538141    -0.85500
O406        O  0.55512818  0.81346681  0.45846481    -0.85200
O407        O  0.59802283  0.76562039  0.41827163    -0.72000
O408        O  0.58278413  0.77051994  0.46348854    -0.84100
Zr409      Zr  0.52034862  0.74225982  0.42942055     2.26400
Zr410      Zr  0.56847579  0.76781746  0.38488599     2.06300
Zr411      Zr  0.54524153  0.77830195  0.48459800     2.10000
Zr412      Zr  0.52715116  0.81537284  0.42380715     1.78800
O413        O  0.53802242  0.75455628  0.52238116    -0.92900
O414        O  0.51254386  0.83136509  0.38407849    -0.40700
O415        O  0.51849380  0.78120193  0.44998109    -0.77300
O416        O  0.52811825  0.77628944  0.40164223    -0.96000
O417        O  0.55976552  0.73405619  0.41168909    -0.89300
O418        O  0.54756434  0.73873558  0.46426536    -0.92200
C419        C  0.56901617  0.86281607  0.42669402     1.01600
C420        C  0.60982687  0.78684558  0.49860159     1.14500
C421        C  0.61510449  0.81045376  0.37820215     1.05300
O422        O  0.54894136  0.78534844  0.34805372    -0.94300
O423        O  0.54879137  0.73149452  0.36569999    -0.90100
O424        O  0.51976808  0.71697813  0.39272097    -0.83200
C425        C  0.53173606  0.71615189  0.37229322     1.11900
O426        O  0.62970946  0.73244074  0.46122550    -0.96300
Zr427      Zr  0.58739605  0.73127848  0.44529694     1.88900
O428        O  0.52484670  0.69963333  0.44178412    -0.72900
O429        O  0.60106268  0.74726785  0.36121960    -0.52200
O430        O  0.61517148  0.70950632  0.41704873    -0.96900
O431        O  0.59552076  0.71067964  0.48473620    -0.54100
O432        O  0.56631423  0.69207544  0.43927908    -0.73500
C433        C  0.54362214  0.68516359  0.44051678     0.98900
O434        O  0.47854682  0.74054406  0.41203330    -0.62300
O435        O  0.54092026  0.81426484  0.51159853    -0.57100
O436        O  0.48564985  0.74460016  0.45763852    -0.93800
O437        O  0.49785013  0.77374366  0.48570307    -0.92200
O438        O  0.50717751  0.84362857  0.45302645    -0.92500
O439        O  0.48195529  0.81439141  0.42407971    -0.91300
C440        C  0.48074773  0.76034858  0.47472895     1.17700
H441        H  0.55563755  0.82876983  0.46795772     0.33700
H442        H  0.51581905  0.77621700  0.38840780     0.44500
H443        H  0.54281383  0.72553063  0.47556666     0.38000
H444        H  0.61469092  0.76346022  0.41181995     0.34500
H445        H  0.50372489  0.81737191  0.37608249     0.26300
H446        H  0.59944955  0.72945609  0.36537107     0.32300
H447        H  0.61871790  0.69352467  0.42541200     0.38200
H448        H  0.52068839  0.85336653  0.46078833     0.32600
H449        H  0.52339464  0.81389138  0.51704020     0.31500
H450        H  0.54409247  0.73761024  0.51863214     0.33200
H451        H  0.58137942  0.69923279  0.48717904     0.32100
H452        H  0.47760902  0.79840649  0.41615262     0.36100
H453        H  0.48038805  0.74442004  0.39415819     0.28900
H454        H  0.63574934  0.83653986  0.45073784     0.33100
H455        H  0.63329464  0.75029508  0.46361193     0.36000
H456        H  0.55056869  0.80992273  0.52663031     0.28600
H457        H  0.47379506  0.72281264  0.41254157     0.41400
H458        H  0.54689246  0.77123287  0.33648705     0.31500
H459        H  0.49928889  0.84337279  0.38833548     0.39100
H460        H  0.59311694  0.72375278  0.49741851     0.31000
H461        H  0.59558102  0.74849078  0.34371765     0.31000
H462        H  0.64730324  0.81393978  0.43641196     0.31300
Zr463      Zr  0.25766477  0.69434894  0.50484584     2.17500
O464        O  0.21343082  0.68494515  0.50771141    -0.51100
O465        O  0.26181125  0.70816069  0.54727966    -0.74300
O466        O  0.25097178  0.65805382  0.53046446    -0.81000
O467        O  0.24384126  0.74847541  0.46602961    -0.82800
O468        O  0.28086486  0.62920400  0.52268853    -0.78400
O469        O  0.22789003  0.72717019  0.49875711    -0.90100
O470        O  0.30278885  0.70343425  0.55614416    -0.76000
O471        O  0.29454590  0.67342186  0.51604117    -0.85500
O472        O  0.28836974  0.72629286  0.50654960    -0.85200
O473        O  0.26370105  0.66312056  0.47345299    -0.72000
O474        O  0.26044149  0.71108547  0.46398198    -0.84100
Zr475      Zr  0.33500409  0.69004471  0.44491270     2.26400
Zr476      Zr  0.30155419  0.64283466  0.48509731     2.06300
Zr477      Zr  0.29097703  0.74290333  0.46515087     2.10000
Zr478      Zr  0.32547382  0.70399934  0.51745480     1.78800
O479        O  0.29054815  0.76725104  0.42706885    -0.92900
O480        O  0.34831384  0.67657010  0.54524850    -0.40700
O481        O  0.32527738  0.71863216  0.47656540    -0.77300
O482        O  0.33443339  0.67276460  0.48620161    -0.96000
O483        O  0.30345790  0.65947988  0.44409982    -0.89300
O484        O  0.29859168  0.71276401  0.43281040    -0.92200
C485        C  0.28006417  0.70639005  0.56237166     1.01600
C486        C  0.22528244  0.74151058  0.48005022     1.14500
C487        C  0.26222733  0.63759388  0.53488489     1.05300
O488        O  0.33282665  0.61884145  0.50722343    -0.94300
O489        O  0.32685881  0.61990905  0.45590643    -0.90100
O490        O  0.35244784  0.64878043  0.43886964    -0.83200
C491        C  0.34495117  0.62642258  0.44194715     1.11900
O492        O  0.22232557  0.67451305  0.43212230    -0.96300
Zr493      Zr  0.26707389  0.68109862  0.43245866     1.88900
O494        O  0.32868452  0.68880428  0.40034425    -0.72900
O495        O  0.27486252  0.60756249  0.47573888    -0.52200
O496        O  0.25458450  0.64128668  0.41507166    -0.96900
O497        O  0.24566297  0.71096939  0.40607509    -0.54100
O498        O  0.28915654  0.67588894  0.39353591    -0.73500
C499        C  0.31107484  0.68135608  0.38620656     0.98900
O500        O  0.37832878  0.69388574  0.43231576    -0.62300
O501        O  0.28554974  0.78340313  0.48445223    -0.57100
O502        O  0.36122909  0.72644629  0.45047537    -0.93800
O503        O  0.33675999  0.75665826  0.46729302    -0.92200
O504        O  0.33350855  0.74635679  0.53101543    -0.92500
O505        O  0.36964685  0.71349595  0.51802418    -0.91300
C506        C  0.35853297  0.74779360  0.46070672     1.17700
H507        H  0.28422197  0.73924254  0.51854515     0.33700
H508        H  0.35011555  0.66471476  0.48967299     0.44500
H509        H  0.30023479  0.72088551  0.41706106     0.38000
H510        H  0.25015086  0.65142048  0.47392926     0.34500
H511        H  0.33590064  0.66420051  0.55075460     0.26300
H512        H  0.27133719  0.60899449  0.45776588     0.32300
H513        H  0.27028232  0.63205594  0.41259853     0.38200
H514        H  0.33867233  0.74475392  0.54856042     0.32600
H515        H  0.29433082  0.78212577  0.50053788     0.31500
H516        H  0.30806430  0.77222051  0.42459331     0.33200
H517        H  0.25218197  0.70799487  0.38915686     0.32100
H518        H  0.37636964  0.70503266  0.50315127     0.36100
H519        H  0.38738264  0.68039301  0.44090982     0.28900
H520        H  0.21000912  0.68237675  0.52558959     0.33100
H521        H  0.21759855  0.67291285  0.44981151     0.36000
H522        H  0.29595228  0.79473042  0.47441744     0.28600
H523        H  0.37861546  0.68922340  0.41455282     0.41400
H524        H  0.32729155  0.60140046  0.50562693     0.31500
H525        H  0.35966636  0.66703623  0.53438166     0.39100
H526        H  0.25254937  0.72730253  0.41089030     0.31000
H527        H  0.28578942  0.59286695  0.47717773     0.31000
H528        H  0.21152937  0.66833202  0.50009215     0.31300
Zr529      Zr  0.78930608  0.07287050  0.81139727     2.17500
O530        O  0.78141140  0.07376582  0.85608230    -0.51100
O531        O  0.83185336  0.08247314  0.82276961    -0.74300
O532        O  0.79280280  0.03335644  0.83225875    -0.81000
O533        O  0.76367806  0.13960908  0.80917711    -0.82800
O534        O  0.78758934  0.00209124  0.80425289    -0.78400
O535        O  0.77616632  0.10882616  0.83517249    -0.90100
O536        O  0.85361317  0.09024060  0.78756425    -0.76000
O537        O  0.81185245  0.04999280  0.78065152    -0.85500
O538        O  0.80413404  0.10386320  0.78360761    -0.85200
O539        O  0.76035154  0.04400708  0.79319475    -0.72000
O540        O  0.75305728  0.09360522  0.79620652    -0.84100
Zr541      Zr  0.76147802  0.07363063  0.71811410     2.26400
Zr542      Zr  0.78292640  0.02155969  0.76120431     2.06300
Zr543      Zr  0.76810473  0.12358951  0.76692758     2.10000
Zr544      Zr  0.82637347  0.08127427  0.75280823     1.78800
O545        O  0.74238019  0.16047821  0.77146298    -0.92900
O546        O  0.86118563  0.05247595  0.74994192    -0.40700
O547        O  0.79099583  0.10222598  0.73533217    -0.77300
O548        O  0.79822763  0.05291793  0.73318766    -0.96000
O549        O  0.74707132  0.04292601  0.74659738    -0.89300
O550        O  0.73876659  0.09540062  0.74937045    -0.92200
C551        C  0.85135051  0.08950879  0.81118576     1.01600
C552        C  0.76766284  0.13061043  0.83089467     1.14500
C553        C  0.79065915  0.01037978  0.82689931     1.05300
O554        O  0.82092173  0.99841831  0.75334749    -0.94300
O555        O  0.77542783  0.00692262  0.71570824    -0.90100
O556        O  0.77005365  0.04032979  0.69030017    -0.83200
C557        C  0.77216133  0.01705199  0.69363760     1.11900
O558        O  0.70495661  0.05868094  0.81776733    -0.96300
Zr559      Zr  0.72472321  0.06513072  0.77767578     1.88900
O560        O  0.72343600  0.05031850  0.71097346    -0.72900
O561        O  0.75870676  0.98357956  0.76449486    -0.52200
O562        O  0.70187842  0.02632739  0.78094019    -0.96900
O563        O  0.69478183  0.09705011  0.78923860    -0.54100
O564        O  0.69933295  0.06589830  0.74082892    -0.73500
C565        C  0.70318477  0.05063460  0.72328577     0.98900
O566        O  0.77148733  0.08797279  0.67631108    -0.62300
O567        O  0.80083186  0.15388339  0.75975340    -0.57100
O568        O  0.74186907  0.11021486  0.70151885    -0.93800
O569        O  0.74800506  0.14076232  0.73008489    -0.92200
O570        O  0.84467465  0.12115263  0.74179001    -0.92500
O571        O  0.84478053  0.08025630  0.71155595    -0.91300
C572        C  0.73934021  0.13242374  0.70951485     1.17700
H573        H  0.81418092  0.11625531  0.79188597     0.33700
H574        H  0.80705725  0.04511769  0.71971764     0.44500
H575        H  0.72420894  0.10387526  0.74348667     0.38000
H576        H  0.75382589  0.03292789  0.80550486     0.34500
H577        H  0.87614004  0.06271664  0.75304136     0.26300
H578        H  0.74291288  0.98738852  0.75589925     0.32300
H579        H  0.71469227  0.01365270  0.78453272     0.38200
H580        H  0.85667118  0.12501046  0.75517335     0.32600
H581        H  0.79400538  0.16499858  0.74678849     0.31500
H582        H  0.72523531  0.15407501  0.77310600     0.33200
H583        H  0.68005795  0.09381995  0.77873528     0.32100
H584        H  0.83229915  0.08835156  0.70073928     0.36100
H585        H  0.78856675  0.08205138  0.67302598     0.28900
H586        H  0.79657687  0.06733076  0.86425140     0.33100
H587        H  0.71514362  0.06841909  0.82956352     0.36000
H588        H  0.80097872  0.16417156  0.77498358     0.28600
H589        H  0.76076419  0.07841467  0.66482133     0.41400
H590        H  0.81930484  0.98326082  0.76357980     0.31500
H591        H  0.85976967  0.04178254  0.76481450     0.39100
H592        H  0.70175662  0.11275548  0.78274910     0.31000
H593        H  0.76722754  0.97160424  0.75347999     0.31000
H594        H  0.76828665  0.06135241  0.85944607     0.31300
Zr595      Zr  0.67552186  0.99018463  0.55879058     2.17500
O596        O  0.68058158  0.96092240  0.59302191    -0.51100
O597        O  0.66538538  0.02804418  0.58140591    -0.74300
O598        O  0.71290012  0.99676905  0.58191023    -0.81000
O599        O  0.60618941  0.97712116  0.55312762    -0.82800
O600        O  0.74414040  0.99588607  0.55339228    -0.78400
O601        O  0.63798192  0.98058415  0.58078310    -0.90100
O602        O  0.65908600  0.05818194  0.55252493    -0.76000
O603        O  0.69808319  0.01949709  0.53457729    -0.85500
O604        O  0.64474770  0.01220007  0.53628250    -0.85200
O605        O  0.70392172  0.96627553  0.53381223    -0.72000
O606        O  0.65392302  0.95948036  0.53490100    -0.84100
Zr607      Zr  0.67069439  0.98830851  0.46225098     2.26400
Zr608      Zr  0.72588505  0.99604741  0.50880738     2.06300
Zr609      Zr  0.62330637  0.98225224  0.51196688     2.10000
Zr610      Zr  0.66700825  0.04129525  0.51187966     1.78800
O611        O  0.59124440  0.95081336  0.51680386    -0.92900
O612        O  0.69598096  0.07541830  0.51860928    -0.40700
O613        O  0.64347886  0.01283764  0.48679010    -0.77300
O614        O  0.69443089  0.01832778  0.48560347    -0.96000
O615        O  0.70251268  0.96712708  0.48486758    -0.89300
O616        O  0.65035980  0.95788950  0.48678943    -0.92200
C617        C  0.65924337  0.05009047  0.57480659     1.01600
C618        C  0.61521451  0.97711757  0.57509213     1.14500
C619        C  0.73589868  0.99657661  0.57640494     1.05300
O620        O  0.75206962  0.03273306  0.50665376    -0.94300
O621        O  0.73935557  0.99534947  0.46279632    -0.90100
O622        O  0.70564715  0.99624135  0.43694180    -0.83200
C623        C  0.72894166  0.99598640  0.44069579     1.11900
O624        O  0.67823102  0.90918470  0.54431564    -0.96300
Zr625      Zr  0.68191535  0.93678339  0.50867969     1.88900
O626        O  0.68423360  0.95318245  0.43831335    -0.72900
O627        O  0.76155059  0.96824634  0.50701136    -0.52200
O628        O  0.71791902  0.91008049  0.51497198    -0.96900
O629        O  0.65311938  0.90418585  0.49589108    -0.54100
O630        O  0.69813447  0.92621336  0.46767695    -0.73500
C631        C  0.69644312  0.93409541  0.44520454     0.98900
O632        O  0.65884432  0.01809580  0.43030752    -0.62300
O633        O  0.59128627  0.01413280  0.51047925    -0.57100
O634        O  0.63255343  0.97414921  0.44239690    -0.93800
O635        O  0.60341475  0.97193930  0.47288330    -0.92200
O636        O  0.62562304  0.05850738  0.50587932    -0.92500
O637        O  0.66976283  0.07343287  0.48019367    -0.91300
C638        C  0.61076723  0.96888029  0.45048117     1.17700
H639        H  0.63264865  0.02017138  0.54688206     0.33700
H640        H  0.70234019  0.02977174  0.47439608     0.44500
H641        H  0.64178774  0.94558681  0.47706271     0.38000
H642        H  0.71531594  0.95752341  0.54445853     0.34500
H643        H  0.68587852  0.08911934  0.52556159     0.26300
H644        H  0.76263488  0.96074506  0.52374820     0.32300
H645        H  0.72898368  0.91929314  0.52637251     0.38200
H646        H  0.62762219  0.07664101  0.50779555     0.32600
H647        H  0.58769368  0.01640290  0.49260766     0.31500
H648        H  0.59782367  0.93601006  0.50814373     0.33200
H649        H  0.63721325  0.90842843  0.50405722     0.32100
H650        H  0.65818120  0.06807473  0.46699846     0.36100
H651        H  0.67198260  0.03094663  0.43054067     0.28900
H652        H  0.68302899  0.97112870  0.60811528     0.33100
H653        H  0.66121485  0.91196797  0.55070070     0.36000
H654        H  0.57628701  0.00587876  0.51716302     0.28600
H655        H  0.66123332  0.00922259  0.41439230     0.41400
H656        H  0.74559608  0.04376139  0.51984705     0.31500
H657        H  0.70657900  0.06996383  0.53260947     0.39100
H658        H  0.65881420  0.88895854  0.50445819     0.31000
H659        H  0.75605792  0.95443338  0.49619583     0.31000
H660        H  0.69672740  0.95257722  0.59018534     0.31300
Zr661      Zr  0.76999336  0.90818657  0.21144461     2.17500
O662        O  0.75472282  0.89511982  0.17081741    -0.51100
O663        O  0.80666875  0.93100332  0.19825618    -0.74300
O664        O  0.75990007  0.94266385  0.18648740    -0.81000
O665        O  0.78183075  0.84003921  0.21907856    -0.82800
O666        O  0.74652133  0.97339250  0.21243707    -0.78400
O667        O  0.78966967  0.87232654  0.19305771    -0.90100
O668        O  0.82559808  0.94256602  0.23411211    -0.76000
O669        O  0.78129462  0.93994569  0.23996868    -0.85500
O670        O  0.79683826  0.88873566  0.24049938    -0.85200
O671        O  0.73196521  0.92496550  0.22821686    -0.72000
O672        O  0.74451242  0.87667046  0.22919027    -0.84100
Zr673      Zr  0.74606053  0.90415775  0.30549590     2.26400
Zr674      Zr  0.74423089  0.95689052  0.25719721     2.06300
Zr675      Zr  0.77135105  0.85764920  0.25905054     2.10000
Zr676      Zr  0.80800056  0.92037605  0.26886282     1.78800
O677        O  0.75051344  0.81775235  0.25508247    -0.92900
O678        O  0.82566499  0.95892002  0.28500513    -0.40700
O679        O  0.78408468  0.88836082  0.28859063    -0.77300
O680        O  0.77092568  0.93621138  0.28679193    -0.96000
O681        O  0.71937450  0.92506551  0.27664329    -0.89300
O682        O  0.73382417  0.87297914  0.27685500    -0.92200
C683        C  0.82249184  0.94376239  0.21059084     1.01600
C684        C  0.79048296  0.84935518  0.19902762     1.14500
C685        C  0.75227676  0.96458208  0.19045295     1.05300
O686        O  0.76354363  0.99769465  0.25778357    -0.94300
O687        O  0.74179898  0.97459342  0.30107936    -0.90100
O688        O  0.74002123  0.94225092  0.32840922    -0.83200
C689        C  0.74063381  0.96549891  0.32357684     1.11900
O690        O  0.68598698  0.89006058  0.20823102    -0.96300
Zr691      Zr  0.70766193  0.89344048  0.24784652     1.88900
O692        O  0.70492302  0.89116277  0.31816923    -0.72900
O693        O  0.70291619  0.97511749  0.25492976    -0.52200
O694        O  0.67144525  0.92050875  0.24630762    -0.96900
O695        O  0.69236889  0.85264507  0.23571462    -0.54100
O696        O  0.68340860  0.88055936  0.28346282    -0.73500
C697        C  0.68620789  0.88167935  0.30702433     0.98900
O698        O  0.75890460  0.90907446  0.34871266    -0.62300
O699        O  0.81226218  0.83942621  0.26592656    -0.57100
O700        O  0.75585935  0.86507476  0.32630173    -0.93800
O701        O  0.77000167  0.83661888  0.29855320    -0.92200
O702        O  0.84642314  0.89789374  0.26102896    -0.92500
O703        O  0.82924529  0.91582306  0.30850228    -0.91300
C704        C  0.76396934  0.84346065  0.32044356     1.17700
H705        H  0.81149632  0.88182298  0.23281082     0.33700
H706        H  0.77685264  0.94736476  0.29923331     0.44500
H707        H  0.72539250  0.85936981  0.28486158     0.38000
H708        H  0.72196819  0.93209180  0.21514132     0.34500
H709        H  0.82023834  0.97196365  0.27324557     0.26300
H710        H  0.70353137  0.98946712  0.26639039     0.32300
H711        H  0.67671388  0.93489948  0.23618591     0.38200
H712        H  0.85946817  0.91083642  0.26145704     0.32600
H713        H  0.80898596  0.82242812  0.27205674     0.31500
H714        H  0.76412832  0.80546034  0.25384101     0.33200
H715        H  0.67756976  0.84967014  0.24617335     0.32100
H716        H  0.81580665  0.91633555  0.32102540     0.36100
H717        H  0.74686561  0.89937035  0.35866316     0.28900
H718        H  0.76689415  0.90167050  0.15869523     0.33100
H719        H  0.68842999  0.90619360  0.19981765     0.36000
H720        H  0.81946234  0.83692986  0.24921070     0.28600
H721        H  0.77489193  0.90013118  0.35041218     0.41400
H722        H  0.78155999  0.99423117  0.25660493     0.31500
H723        H  0.81664221  0.96276127  0.30052305     0.39100
H724        H  0.70496713  0.84085971  0.24203326     0.31000
H725        H  0.70200078  0.98261172  0.23818524     0.31000
H726        H  0.73935436  0.90474219  0.16778888     0.31300
Zr727      Zr  0.84921801  0.97294826  0.06805437     2.17500
O728        O  0.84685478  0.97836005  0.11311411    -0.51100
O729        O  0.85857800  0.93201097  0.08497080    -0.74300
O730        O  0.80778093  0.97324323  0.08471194    -0.81000
O731        O  0.91522438  0.99854810  0.06899819    -0.82800
O732        O  0.77930053  0.97340491  0.05348680    -0.78400
O733        O  0.88081722  0.99328090  0.09272512    -0.90100
O734        O  0.87034541  0.90618824  0.05388809    -0.76000
O735        O  0.82881510  0.94710939  0.03832124    -0.85500
O736        O  0.88246016  0.95455875  0.04559349    -0.85200
O737        O  0.82260587  0.99984259  0.04386039    -0.72000
O738        O  0.87143230  0.00709846  0.05014027    -0.84100
Zr739      Zr  0.86080631  0.98766422  0.97262376     2.26400
Zr740      Zr  0.80314531  0.97386304  0.01276374     2.06300
Zr741      Zr  0.90420766  0.98817009  0.02674387     2.10000
Zr742      Zr  0.86222003  0.92861769  0.01586525     1.78800
O743        O  0.94218566  0.01130360  0.03490696    -0.92900
O744        O  0.82953184  0.89742510  0.01778820    -0.40700
O745        O  0.88652101  0.96083337  0.99662457    -0.77300
O746        O  0.83662714  0.95442720  0.99018382    -0.96000
O747        O  0.82726646  0.00611693  0.99495642    -0.89300
O748        O  0.87844290  0.01488552  0.00263313    -0.92200
C749        C  0.86725191  0.91143564  0.07681813     1.01600
C750        C  0.90346574  0.99967201  0.08954299     1.14500
C751        C  0.78544536  0.97374258  0.07692525     1.05300
O752        O  0.77613120  0.93812452  0.00710437    -0.94300
O753        O  0.79311885  0.97655043  0.96599823    -0.90100
O754        O  0.82884165  0.97890152  0.94328036    -0.83200
C755        C  0.80527437  0.97768130  0.94485928     1.11900
O756        O  0.84520594  0.05858762  0.06194998    -0.96300
Zr757      Zr  0.84538502  0.03267174  0.02484151     1.88900
O758        O  0.84577140  0.02472644  0.95260405    -0.72900
O759        O  0.76933137  0.00367115  0.00870485    -0.52200
O760        O  0.80650080  0.05424806  0.03321509    -0.96900
O761        O  0.87507926  0.06652276  0.01978097    -0.54100
O762        O  0.83409858  0.04966073  0.98468678    -0.73500
C763        C  0.83534554  0.04404971  0.96156567     0.98900
O764        O  0.87944627  0.96407161  0.93881897    -0.62300
O765        O  0.93346362  0.95376368  0.02607408    -0.57100
O766        O  0.89934707  0.00549340  0.95774038    -0.93800
O767        O  0.92537765  0.00598673  0.99102499    -0.92200
O768        O  0.90040691  0.90593739  0.00736678    -0.92500
O769        O  0.86360008  0.90164878  0.97955205    -0.91300
C770        C  0.91981432  0.01118998  0.96846851     1.17700
H771        H  0.89409218  0.94588077  0.05617615     0.33700
H772        H  0.82965891  0.94425012  0.97714624     0.44500
H773        H  0.88699980  0.02892568  0.99544712     0.38000
H774        H  0.81040784  0.00806428  0.05417351     0.34500
H775        H  0.82415840  0.89708411  0.03535988     0.26300
H776        H  0.75418341  0.99339951  0.00723819     0.32300
H777        H  0.80683411  0.06909205  0.02239554     0.38200
H778        H  0.91035190  0.91708488  0.99667414     0.32600
H779        H  0.94615205  0.95878299  0.01377806     0.31500
H780        H  0.93683043  0.02884812  0.03627910     0.33200
H781        H  0.88718258  0.06444387  0.03346848     0.32100
H782        H  0.85475079  0.91068666  0.96624458     0.36100
H783        H  0.87356230  0.94685484  0.94131037     0.28900
H784        H  0.83893691  0.96316566  0.11976384     0.33100
H785        H  0.86045603  0.05390504  0.07108952     0.36000
H786        H  0.94210071  0.95477149  0.04227011     0.28600
H787        H  0.87108762  0.96974604  0.92347810     0.41400
H788        H  0.77367734  0.93143846  0.02404449     0.31500
H789        H  0.81537616  0.90492693  0.00877817     0.39100
H790        H  0.86580863  0.08184514  0.02389868     0.31000
H791        H  0.76794889  0.01172308  0.02518231     0.31000
H792        H  0.83491753  0.99194891  0.11641006     0.31300
Zr793      Zr  0.82978687  0.72791196  0.07555155     2.17500
O794        O  0.81426682  0.75823673  0.10530126    -0.51100
O795        O  0.79040910  0.71354330  0.05930212    -0.74300
O796        O  0.80898183  0.76300576  0.05851915    -0.81000
O797        O  0.83827068  0.67338154  0.11952364    -0.82800
O798        O  0.82221064  0.76048512  0.01895540    -0.78400
O799        O  0.81323976  0.70644447  0.11145969    -0.90100
O800        O  0.80025231  0.69118235  0.02483400    -0.76000
O801        O  0.83624090  0.72419464  0.03195885    -0.85500
O802        O  0.83674797  0.68525924  0.06628555    -0.85200
O803        O  0.86379528  0.75515656  0.06535328    -0.72000
O804        O  0.86539002  0.71764783  0.09972462    -0.84100
Zr805      Zr  0.91315759  0.69604101  0.03739441     2.26400
Zr806      Zr  0.86948928  0.75091421  0.02113676     2.06300
Zr807      Zr  0.87230660  0.67463032  0.09013411     2.10000
Zr808      Zr  0.84394275  0.68223814  0.02269951     1.78800
O809        O  0.88828663  0.66947507  0.13209106    -0.92900
O810        O  0.83450689  0.69316044  0.97979169    -0.40700
O811        O  0.87907127  0.66947218  0.04652528    -0.77300
O812        O  0.87844964  0.70797417  0.01195787    -0.96000
O813        O  0.90533066  0.73905047  0.04489910    -0.89300
O814        O  0.90707478  0.70007919  0.08088135    -0.92200
C815        C  0.78480465  0.70149398  0.03961990     1.01600
C816        C  0.81911389  0.68688344  0.12362411     1.14500
C817        C  0.80467741  0.76469399  0.03543792     1.05300
O818        O  0.86460520  0.75525177  0.97639577    -0.94300
O819        O  0.91417878  0.75621069  0.00540083    -0.90100
O820        O  0.93362967  0.71862743  0.00553406    -0.83200
C821        C  0.93322411  0.74174312  0.00078605     1.11900
O822        O  0.89046401  0.77811747  0.11495748    -0.96300
Zr823      Zr  0.90026372  0.74295494  0.08822075     1.88900
O824        O  0.95304542  0.70651024  0.05487998    -0.72900
O825        O  0.87014838  0.79608088  0.02235068    -0.52200
O826        O  0.91966086  0.78304672  0.08034692    -0.96900
O827        O  0.90680786  0.73521994  0.13221388    -0.54100
O828        O  0.94461285  0.73281533  0.08687639    -0.73500
C829        C  0.95942350  0.71951532  0.07366707     0.98900
O830        O  0.92649893  0.66926519  0.00345649    -0.62300
O831        O  0.85749925  0.63210929  0.08609737    -0.57100
O832        O  0.93136043  0.65878495  0.05476867    -0.93800
O833        O  0.90814143  0.64763114  0.08828767    -0.92200
O834        O  0.82237268  0.64273300  0.02667469    -0.92500
O835        O  0.85988170  0.64987343  0.99542200    -0.91300
C836        C  0.92682069  0.64527061  0.07377862     1.17700
H837        H  0.82268604  0.67522960  0.07095463     0.33700
H838        H  0.88263571  0.70601994  0.99470219     0.44500
H839        H  0.92093766  0.69402422  0.09048108     0.38000
H840        H  0.85945251  0.77197516  0.06928513     0.34500
H841        H  0.81617479  0.69282554  0.97862208     0.26300
H842        H  0.88077216  0.80020936  0.03675632     0.32300
H843        H  0.93587149  0.77920935  0.07264627     0.38200
H844        H  0.81240744  0.64122560  0.01128770     0.32600
H845        H  0.85128246  0.62761850  0.10277155     0.31500
H846        H  0.88600096  0.65162870  0.13579317     0.33200
H847        H  0.91287469  0.71791473  0.13307499     0.32100
H848        H  0.87362081  0.65783571  0.98619573     0.36100
H849        H  0.94417390  0.66555189  0.00694080     0.28900
H850        H  0.82294500  0.75444199  0.12103492     0.33100
H851        H  0.87269653  0.78165845  0.11193392     0.36000
H852        H  0.84241331  0.63328813  0.07566313     0.28600
H853        H  0.91775996  0.65335780  0.00624816     0.41400
H854        H  0.88054454  0.74951773  0.96926721     0.31500
H855        H  0.83882043  0.71096140  0.97839267     0.39100
H856        H  0.88996153  0.73457896  0.13955779     0.31000
H857        H  0.88013678  0.80092615  0.00771662     0.31000
H858        H  0.79675312  0.75351535  0.10828279     0.31300
Zr859      Zr  0.64461085  0.71429610  0.00622211     2.17500
O860        O  0.68840630  0.70782155  0.99715389    -0.51100
O861        O  0.64263431  0.68855772  0.04328081    -0.74300
O862        O  0.67612558  0.73746451  0.02843944    -0.81000
O863        O  0.62188167  0.66530054  0.96125945    -0.82800
O864        O  0.65955312  0.77586534  0.03603370    -0.78400
O865        O  0.65125581  0.67231183  0.99085119    -0.90100
O866        O  0.60175753  0.68306114  0.05199158    -0.76000
O867        O  0.61582781  0.73192480  0.03501408    -0.85500
O868        O  0.60643998  0.69364510  0.99804831    -0.85200
O869        O  0.64128117  0.75748550  0.99585235    -0.72000
O870        O  0.63604916  0.72162111  0.96287025    -0.84100
Zr871      Zr  0.56498155  0.76227887  0.97310009     2.26400
Zr872      Zr  0.61259584  0.77553323  0.02508533     2.06300
Zr873      Zr  0.59694413  0.70186299  0.95538840     2.10000
Zr874      Zr  0.57790763  0.71066134  0.02593415     1.78800
O875        O  0.61172414  0.70349363  0.91271681    -0.92900
O876        O  0.56876210  0.72716858  0.06705334    -0.40700
O877        O  0.56654335  0.71860590  0.98333107    -0.77300
O878        O  0.57455318  0.75296967  0.01581215    -0.96000
O879        O  0.60301812  0.78330282  0.98203835    -0.89300
O880        O  0.59496929  0.74488720  0.94542089    -0.92200
C881        C  0.62479463  0.67862830  0.05550538     1.01600
C882        C  0.63977765  0.65850282  0.97520597     1.14500
C883        C  0.67840858  0.76026277  0.03486262     1.05300
O884        O  0.61179123  0.77840152  0.07018714    -0.94300
O885        O  0.56971504  0.79533291  0.03310011    -0.90100
O886        O  0.55214140  0.79884992  0.99518721    -0.83200
C887        C  0.55074549  0.80047340  0.01869485     1.11900
O888        O  0.67698757  0.76246497  0.94694421    -0.96300
Zr889      Zr  0.63240053  0.76531562  0.95397436     1.88900
O890        O  0.56949634  0.79547549  0.94273502    -0.72900
O891        O  0.62215228  0.81961046  0.02281157    -0.52200
O892        O  0.65516467  0.80398750  0.95925608    -0.96900
O893        O  0.63885952  0.75396828  0.91058891    -0.54100
O894        O  0.61010623  0.79663496  0.93128912    -0.73500
C895        C  0.58765834  0.80413884  0.93000702     0.98900
O896        O  0.51990908  0.76133687  0.97713191    -0.62300
O897        O  0.57735583  0.66442102  0.93908476    -0.57100
O898        O  0.54593855  0.74720873  0.93537173    -0.93800
O899        O  0.55421141  0.70769826  0.94322675    -0.92200
O900        O  0.55925510  0.66967676  0.02205110    -0.92500
O901        O  0.53392789  0.70700982  0.03565907    -0.91300
C902        C  0.54819012  0.72481731  0.92811849     1.17700
H903        H  0.60652570  0.67625909  0.00215058     0.33700
H904        H  0.56014423  0.75616453  0.02598750     0.44500
H905        H  0.59100802  0.74756144  0.92821058     0.38000
H906        H  0.65761039  0.76534765  0.99554664     0.34500
H907        H  0.56309305  0.71266209  0.07677980     0.26300
H908        H  0.61083629  0.82615477  0.00987750     0.32300
H909        H  0.64675008  0.81246523  0.97322721     0.38200
H910        H  0.55921265  0.66624114  0.00400402     0.32600
H911        H  0.58970585  0.65663796  0.92789993     0.31500
H912        H  0.62781750  0.69463379  0.91305363     0.33200
H913        H  0.65226434  0.76503879  0.90470769     0.32100
H914        H  0.52549047  0.71736267  0.02307164     0.36100
H915        H  0.51679762  0.75937591  0.99512745     0.28900
H916        H  0.68895799  0.70130627  0.97999230     0.33100
H917        H  0.68126931  0.74506672  0.95102556     0.36000
H918        H  0.57597971  0.65297707  0.95340270     0.28600
H919        H  0.51421906  0.77837170  0.97317949     0.41400
H920        H  0.62727539  0.78723235  0.07462128     0.31500
H921        H  0.58516747  0.73130463  0.07424892     0.39100
H922        H  0.62391964  0.75984483  0.90161649     0.31000
H923        H  0.61566010  0.82655801  0.03852514     0.31000
H924        H  0.69317087  0.69360098  0.00775401     0.31300
Zr925      Zr  0.40305695  0.83489190  0.95929275     2.17500
O926        O  0.41642746  0.87337185  0.97905453    -0.51100
O927        O  0.44234201  0.81876410  0.94466467    -0.74300
O928        O  0.42882869  0.82506833  0.99425826    -0.81000
O929        O  0.39282666  0.86074880  0.89482484    -0.82800
O930        O  0.40845260  0.79397931  0.01435403    -0.78400
O931        O  0.41698720  0.86457430  0.92938623    -0.90100
O932        O  0.43513080  0.77842384  0.93435037    -0.76000
O933        O  0.39730293  0.79265474  0.97039918    -0.85500
O934        O  0.39617113  0.81300781  0.92144341    -0.85200
O935        O  0.36914143  0.83487449  0.98828326    -0.72000
O936        O  0.36758748  0.85376969  0.94021385    -0.84100
Zr937      Zr  0.32031192  0.78752019  0.94130582     2.26400
Zr938      Zr  0.36337442  0.79184781  0.99877992     2.06300
Zr939      Zr  0.36017411  0.83062834  0.90304410     2.10000
Zr940      Zr  0.39058859  0.77084543  0.93284359     1.78800
O941        O  0.34535268  0.86698502  0.88066711    -0.92900
O942        O  0.40451926  0.73443521  0.95576628    -0.40700
O943        O  0.35441794  0.78758359  0.91290795    -0.77300
O944        O  0.35596651  0.76873560  0.96080954    -0.96000
O945        O  0.32849756  0.81010264  0.97842932    -0.89300
O946        O  0.32576754  0.83013677  0.93072069    -0.92200
C947        C  0.44932554  0.79734777  0.93711017     1.01600
C948        C  0.41094844  0.87011224  0.90715845     1.14500
C949        C  0.42818498  0.80766539  0.01028875     1.05300
O950        O  0.36522255  0.75113516  0.01837302    -0.94300
O951        O  0.31782204  0.78396966  0.00816996    -0.90100
O952        O  0.30448296  0.76285359  0.97482425    -0.83200
C953        C  0.30043228  0.77240422  0.99599515     1.11900
O954        O  0.35144288  0.89132485  0.98095298    -0.96300
Zr955      Zr  0.33315966  0.85213532  0.96789473     1.88900
O956        O  0.28046509  0.80525983  0.95145063    -0.72900
O957        O  0.35924551  0.80876476  0.04052111    -0.52200
O958        O  0.31620481  0.86155049  0.00859903    -0.96900
O959        O  0.31337736  0.88514700  0.94404521    -0.54100
O960        O  0.28906305  0.84306099  0.96826263    -0.73500
C961        C  0.27417470  0.82567935  0.96172554     0.98900
O962        O  0.30459828  0.74748541  0.92720273    -0.62300
O963        O  0.37675001  0.81349917  0.86463729    -0.57100
O964        O  0.29907975  0.79398811  0.90219399    -0.93800
O965        O  0.32178503  0.82247308  0.88075363    -0.92200
O966        O  0.40615730  0.76330294  0.89100980    -0.92500
O967        O  0.37518343  0.73255354  0.91450908    -0.91300
C968        C  0.30244264  0.80900430  0.88409071     1.17700
H969        H  0.40986210  0.81479353  0.91006260     0.33700
H970        H  0.35235572  0.75144844  0.96446900     0.44500
H971        H  0.31108386  0.83718905  0.92317643     0.38000
H972        H  0.37326594  0.84443181  0.00286174     0.34500
H973        H  0.42285870  0.73527595  0.95552662     0.26300
H974        H  0.37536311  0.81680619  0.04408158     0.32300
H975        H  0.31164108  0.84517388  0.01553359     0.38200
H976        H  0.42082446  0.77419219  0.88901132     0.32600
H977        H  0.37271807  0.79560069  0.86532225     0.31500
H978        H  0.33066653  0.87264104  0.89015932     0.33200
H979        H  0.32710014  0.89583406  0.93816202     0.32100
H980        H  0.35697602  0.73491992  0.91348826     0.36100
H981        H  0.28631299  0.74882488  0.92878747     0.28900
H982        H  0.43447106  0.87138492  0.98199929     0.33100
H983        H  0.36599708  0.89369387  0.96998856     0.36000
H984        H  0.36577038  0.82018135  0.85148560     0.28600
H985        H  0.30766941  0.74701347  0.90910964     0.41400
H986        H  0.36065250  0.73910694  0.00526709     0.31500
H987        H  0.39996999  0.73791546  0.97322644     0.39100
H988        H  0.30452482  0.89531983  0.95654270     0.31000
H989        H  0.34742698  0.82273543  0.03871280     0.31000
H990        H  0.40889035  0.87311864  0.99580165     0.31300
Zr991      Zr  0.14006555  0.83274502  0.03035605     2.17500
O992        O  0.18258815  0.84281717  0.04182736    -0.51100
O993        O  0.13665588  0.86148784  0.99566452    -0.74300
O994        O  0.17365932  0.81206773  0.00755405    -0.81000
O995        O  0.10900018  0.87636299  0.07887552    -0.82800
O996        O  0.15890139  0.77455479  0.99395694    -0.78400
O997        O  0.14101229  0.87316138  0.05134142    -0.90100
O998        O  0.09556878  0.86448095  0.98636639    -0.76000
O999        O  0.11275278  0.81613475  0.99946555    -0.85500
O1000       O  0.10021530  0.84919013  0.04001285    -0.85200
O1001       O  0.13988788  0.78860171  0.03596988    -0.72000
O1002       O  0.13154296  0.82028168  0.07243768    -0.84100
Zr1003     Zr  0.06423499  0.77424857  0.05531076     2.26400
Zr1004     Zr  0.11317056  0.77163469  0.00429966     2.06300
Zr1005     Zr  0.09087589  0.83558370  0.08137203     2.10000
Zr1006     Zr  0.07318481  0.83349905  0.01010523     1.78800
O1007       O  0.10738446  0.82861796  0.12290123    -0.92900
O1008       O  0.06209019  0.82707523  0.96668860    -0.40700
O1009       O  0.06276016  0.81912023  0.05099487    -0.77300
O1010       O  0.07346128  0.79017925  0.01460488    -0.96000
O1011       O  0.10439392  0.75784847  0.04602221    -0.89300
O1012       O  0.09201118  0.79131955  0.08586340    -0.92200
C1013       C  0.11830645  0.87081310  0.98363168     1.01600
C1014       C  0.12723948  0.88531498  0.06663799     1.14500
C1015       C  0.17682950  0.79035540  0.99797425     1.05300
O1016       O  0.11473431  0.77354086  0.95921067    -0.94300
O1017       O  0.07323756  0.75137955  0.99005586    -0.90100
O1018       O  0.05488505  0.74126471  0.02612566    -0.83200
C1019       C  0.05408525  0.74377820  0.00262534     1.11900
O1020       O  0.17402573  0.78667212  0.08851350    -0.96300
Zr1021     Zr  0.13167503  0.77582417  0.07658105     1.88900
O1022       O  0.07254429  0.73903812  0.08253958    -0.72900
O1023       O  0.12536120  0.72813559  0.00276131    -0.52200
O1024       O  0.16084136  0.74302617  0.06536016    -0.96900
O1025       O  0.13654804  0.77804694  0.12166707    -0.54100
O1026       O  0.11327293  0.73940883  0.09356172    -0.73500
C1027       C  0.09158297  0.73010101  0.09371387     0.98900
O1028       O  0.01955156  0.76758324  0.05308724    -0.62300
O1029       O  0.06918699  0.86607546  0.10689252    -0.57100
O1030       O  0.03672560  0.78508477  0.08883337    -0.93800
O1031       O  0.04806154  0.82327710  0.08286486    -0.92200
O1032       O  0.05268129  0.87275114  0.01930138    -0.92500
O1033       O  0.02828135  0.82944096  0.00603810    -0.91300
C1034       C  0.04171374  0.80620709  0.09774124     1.17700
H1035       H  0.09845798  0.86677472  0.03713578     0.33700
H1036       H  0.05975117  0.78777087  0.00389723     0.44500
H1037       H  0.08760195  0.78573632  0.10233710     0.38000
H1038       H  0.15652751  0.78177352  0.03596634     0.34500
H1039       H  0.05056602  0.81278100  0.96646526     0.26300
H1040       H  0.14030175  0.72716627  0.01343965     0.32300
H1041       H  0.16087201  0.73153816  0.07970304     0.38200
H1042       H  0.05111293  0.88115842  0.00302854     0.32600
H1043       H  0.05275219  0.86834388  0.09895470     0.31500
H1044       H  0.12544067  0.83170432  0.12140041     0.33200
H1045       H  0.14273443  0.76146509  0.12664196     0.32100
H1046       H  0.02184155  0.83047436  0.02321949     0.36100
H1047       H  0.01465435  0.77334808  0.03637984     0.28900
H1048       H  0.18374081  0.83860433  0.05967102     0.33100
H1049       H  0.17997509  0.77300487  0.09927476     0.36000
H1050       H  0.06557065  0.85756949  0.12276073     0.28600
H1051       H  0.01725747  0.74936757  0.05267234     0.41400
H1052       H  0.09850973  0.78072351  0.95435619     0.31500
H1053       H  0.05163527  0.84157837  0.96233183     0.39100
H1054       H  0.11963719  0.77888960  0.12877041     0.31000
H1055       H  0.11235468  0.71928197  0.01223293     0.31000
H1056       H  0.18374782  0.86112736  0.04129250     0.31300
Zr1057     Zr  0.25137120  0.94855854  0.03764320     2.17500
O1058       O  0.23293042  0.94743150  0.99620116    -0.51100
O1059       O  0.20921101  0.96254794  0.04356714    -0.74300
O1060       O  0.23733653  0.90762302  0.02570289    -0.81000
O1061       O  0.28763147  0.00713301  0.02180655    -0.82800
O1062       O  0.25179666  0.87845048  0.05251309    -0.78400
O1063       O  0.26505322  0.97587665  0.00450185    -0.90100
O1064       O  0.20297491  0.96097610  0.08511482    -0.76000
O1065       O  0.24329068  0.92654049  0.07524612    -0.85500
O1066       O  0.24883350  0.98104038  0.06796318    -0.85200
O1067       O  0.28516604  0.91944845  0.04299819    -0.72000
O1068       O  0.29050241  0.96846724  0.03891068    -0.84100
Zr1069     Zr  0.31592332  0.95085599  0.11118179     2.26400
Zr1070     Zr  0.27811001  0.89949007  0.08246958     2.06300
Zr1071     Zr  0.28886961  0.00052312  0.06877326     2.10000
Zr1072     Zr  0.24263647  0.95816644  0.10565194     1.78800
O1073       O  0.32473652  0.02799681  0.06948373    -0.92900
O1074       O  0.21737485  0.92553890  0.12416467    -0.40700
O1075       O  0.28193120  0.97250907  0.09885910    -0.77300
O1076       O  0.27645950  0.92986324  0.11492113    -0.96000
O1077       O  0.31767577  0.91943470  0.08056803    -0.89300
O1078       O  0.32415007  0.97344007  0.07393152    -0.92200
C1079       C  0.19543793  0.96351187  0.06279280     1.01600
C1080       C  0.27820406  0.99560271  0.00261534     1.14500
C1081       C  0.23928124  0.88533490  0.03351456     1.05300
O1082       O  0.25169465  0.88178684  0.11454118    -0.94300
O1083       O  0.31306447  0.88313357  0.10631524    -0.90100
O1084       O  0.32134889  0.91298958  0.13452026    -0.83200
C1085       C  0.32430177  0.89121138  0.12568875     1.11900
O1086       O  0.32040205  0.93560889  0.99816540    -0.96300
Zr1087     Zr  0.32425323  0.94102063  0.04288380     1.88900
O1088       O  0.35997019  0.94828583  0.10103714    -0.72900
O1089       O  0.29056146  0.85654805  0.07501728    -0.52200
O1090       O  0.34103298  0.90072904  0.03134831    -0.96900
O1091       O  0.34807493  0.97046219  0.01818893    -0.54100
O1092       O  0.36496263  0.93863696  0.06039577    -0.73500
C1093       C  0.37324599  0.94258933  0.08215169     0.98900
O1094       O  0.34076862  0.96471650  0.14644303    -0.62300
O1095       O  0.26516240  0.03885046  0.06495428    -0.57100
O1096       O  0.30292036  0.98373741  0.13844930    -0.93800
O1097       O  0.28415456  0.01298691  0.11426423    -0.92200
O1098       O  0.22407770  0.99716829  0.11898987    -0.92500
O1099       O  0.24174541  0.96795652  0.14974981    -0.91300
C1100       C  0.29032185  0.00366480  0.13583816     1.17700
H1101       H  0.23615822  0.99323539  0.06478956     0.33700
H1102       H  0.27436364  0.92235318  0.13117191     0.44500
H1103       H  0.33966130  0.98258577  0.07460816     0.38000
H1104       H  0.28545146  0.90739002  0.02974426     0.34500
H1105       H  0.22647628  0.92040991  0.13927858     0.26300
H1106       H  0.27573272  0.84627320  0.07850258     0.32300
H1107       H  0.35156572  0.89538233  0.04541844     0.38200
H1108       H  0.23560661  0.01020403  0.11321857     0.32600
H1109       H  0.25605448  0.03717225  0.04908046     0.31500
H1110       H  0.33030524  0.02865655  0.05197965     0.33200
H1111       H  0.36483116  0.96304452  0.01675657     0.32100
H1112       H  0.25592549  0.95874466  0.15690627     0.36100
H1113       H  0.35223788  0.95078724  0.15003684     0.28900
H1114       H  0.21590300  0.94085788  0.99837588     0.33100
H1115       H  0.30897436  0.94893869  0.99270861     0.36000
H1116       H  0.25215509  0.03764865  0.07786095     0.28600
H1117       H  0.35163791  0.97798048  0.13979970     0.41400
H1118       H  0.24062175  0.87021199  0.10555068     0.31500
H1119       H  0.20246259  0.93423875  0.13050543     0.39100
H1120       H  0.35036548  0.98507014  0.02908597     0.31000
H1121       H  0.29324445  0.85515796  0.05691033     0.31000
H1122       H  0.24194056  0.93433439  0.98695069     0.31300
Zr1123     Zr  0.20113660  0.99831006  0.78557438     2.17500
O1124       O  0.19207260  0.99571762  0.74123714    -0.51100
O1125       O  0.20612234  0.04263520  0.78385236    -0.74300
O1126       O  0.15887712  0.01006971  0.77664635    -0.81000
O1127       O  0.26501466  0.97345239  0.77173810    -0.82800
O1128       O  0.13280291  0.99620618  0.80681062    -0.78400
O1129       O  0.23172148  0.99230156  0.75361583    -0.90100
O1130       O  0.20541339  0.05606133  0.82385080    -0.76000
O1131       O  0.17997779  0.00911705  0.82261591    -0.85500
O1132       O  0.23353172  0.01093722  0.81312303    -0.85200
O1133       O  0.17822859  0.96201897  0.79741381    -0.72000
O1134       O  0.22755735  0.96362980  0.79101830    -0.84100
Zr1135     Zr  0.21628457  0.94740445  0.86785045     2.26400
Zr1136     Zr  0.15844723  0.97279642  0.83591511     2.06300
Zr1137     Zr  0.26001041  0.97549678  0.81856714     2.10000
Zr1138     Zr  0.21164676  0.02051514  0.85063951     1.78800
O1139       O  0.29375990  0.94542813  0.81734689    -0.92900
O1140       O  0.17770345  0.04389098  0.86929801    -0.40700
O1141       O  0.23596257  0.98428591  0.85394992    -0.77300
O1142       O  0.19004458  0.98380323  0.86529307    -0.96000
O1143       O  0.18433861  0.93666603  0.83963126    -0.89300
O1144       O  0.23870078  0.93810196  0.83067479    -0.92200
C1145       C  0.20508211  0.05961531  0.80036672     1.01600
C1146       C  0.25249140  0.98090093  0.75237266     1.14500
C1147       C  0.13749226  0.00804131  0.78666544     1.05300
O1148       O  0.13177062  0.00054300  0.85968460    -0.94300
O1149       O  0.14410081  0.95277932  0.87361264    -0.90100
O1150       O  0.17927217  0.93876713  0.89213329    -0.83200
C1151       C  0.15572785  0.94168073  0.89113452     1.11900
O1152       O  0.19485218  0.91942168  0.75915373    -0.96300
Zr1153     Zr  0.20592028  0.92725781  0.80227563     1.88900
O1154       O  0.22688939  0.90335730  0.86337747    -0.72900
O1155       O  0.12579513  0.94396276  0.82394603    -0.52200
O1156       O  0.17091562  0.89898396  0.79819673    -0.96900
O1157       O  0.23951977  0.91073508  0.77688846    -0.54100
O1158       O  0.21685934  0.89031372  0.82459754    -0.73500
C1159       C  0.22503360  0.88661760  0.84649040     0.98900
O1160       O  0.22557116  0.93337465  0.90996402    -0.62300
O1161       O  0.29161362  0.00704828  0.81149224    -0.57100
O1162       O  0.25132332  0.96473929  0.89027046    -0.93800
O1163       O  0.27740563  0.98258015  0.86214810    -0.92200
O1164       O  0.24917286  0.04505475  0.85629650    -0.92500
O1165       O  0.22278273  0.02910705  0.89361634    -0.91300
C1166       C  0.27081434  0.97727975  0.88492471     1.17700
H1167       H  0.24301802  0.02480848  0.80692819     0.33700
H1168       H  0.18285113  0.98729031  0.88132188     0.44500
H1169       H  0.25110883  0.92514531  0.83252284     0.38000
H1170       H  0.16590754  0.95825087  0.78496972     0.34500
H1171       H  0.17550700  0.03681764  0.88610289     0.26300
H1172       H  0.11015053  0.95284270  0.82771728     0.32300
H1173       H  0.16125146  0.90109653  0.81367606     0.38200
H1174       H  0.26292585  0.03291926  0.85503734     0.32600
H1175       H  0.30659145  0.00058085  0.81996731     0.31500
H1176       H  0.29835813  0.94433560  0.79959171     0.33200
H1177       H  0.23613787  0.89272759  0.77566211     0.32100
H1178       H  0.21912546  0.01348568  0.90256078     0.36100
H1179       H  0.21592855  0.94427333  0.92121628     0.28900
H1180       H  0.18345513  0.01130658  0.73674257     0.33100
H1181       H  0.19671124  0.93570377  0.75086012     0.36000
H1182       H  0.29559980  0.00592822  0.79360262     0.28600
H1183       H  0.21773693  0.91681480  0.91155682     0.41400
H1184       H  0.14148826  0.00498506  0.87464036     0.31500
H1185       H  0.18459289  0.06067874  0.87218153     0.39100
H1186       H  0.25449403  0.91189668  0.78749179     0.31000
H1187       H  0.12646574  0.94331423  0.80561288     0.31000
H1188       H  0.17933332  0.98256274  0.73966543     0.31300
Zr1189     Zr  0.19683500  0.02414592  0.60587702     2.17500
O1190       O  0.17448110  0.00727339  0.64143548    -0.51100
O1191       O  0.15250926  0.02493806  0.59531705    -0.74300
O1192       O  0.18375452  0.06187797  0.62669852    -0.81000
O1193       O  0.24104193  0.96891676  0.61320279    -0.82800
O1194       O  0.18478647  0.09106906  0.59641114    -0.78400
O1195       O  0.21491323  0.99413925  0.63509344    -0.90100
O1196       O  0.14882082  0.03379404  0.55433070    -0.76000
O1197       O  0.18788526  0.04945755  0.57119899    -0.85500
O1198       O  0.19658507  0.99618099  0.57121459    -0.85200
O1199       O  0.22933597  0.05530036  0.60596292    -0.72000
O1200       O  0.23746534  0.00871386  0.60006662    -0.84100
Zr1201     Zr  0.26068239  0.03754193  0.53071517     2.26400
Zr1202     Zr  0.21953681  0.07987474  0.57019357     2.06300
Zr1203     Zr  0.23834021  0.97975784  0.56758892     2.10000
Zr1204     Zr  0.18789657  0.02286075  0.53641017     1.78800
O1205       O  0.27565782  0.95415077  0.56735331    -0.92900
O1206       O  0.16800953  0.05194588  0.50801764    -0.40700
O1207       O  0.22873686  0.00760413  0.53524771    -0.77300
O1208       O  0.21921559  0.05461680  0.53333276    -0.96000
O1209       O  0.26001363  0.06312489  0.56689466    -0.89300
O1210       O  0.27081999  0.01056970  0.56515460    -0.92200
C1211       C  0.14010189  0.03202022  0.57620458     1.01600
C1212       C  0.23139565  0.97681284  0.63395554     1.14500
C1213       C  0.17710611  0.08265806  0.61724386     1.05300
O1214       O  0.19445882  0.11288653  0.55219140    -0.94300
O1215       O  0.23753130  0.10438190  0.53747762    -0.90100
O1216       O  0.25797716  0.07850105  0.51106849    -0.83200
C1217       C  0.24927258  0.09979078  0.51737832     1.11900
O1218       O  0.26736673  0.03329219  0.64627835    -0.96300
Zr1219     Zr  0.27047716  0.03726784  0.60135813     1.88900
O1220       O  0.30345036  0.03791191  0.54497821    -0.72900
O1221       O  0.24031218  0.10940161  0.59738478    -0.52200
O1222       O  0.28552508  0.07480828  0.62152948    -0.96900
O1223       O  0.29578799  0.00373891  0.61817382    -0.54100
O1224       O  0.31071940  0.04701995  0.58374333    -0.73500
C1225       C  0.31047257  0.05356722  0.56115102     0.98900
O1226       O  0.28638075  0.03968983  0.49348476    -0.62300
O1227       O  0.21461410  0.94126360  0.56790020    -0.57100
O1228       O  0.25480494  0.00340127  0.50130036    -0.93800
O1229       O  0.24082191  0.96915318  0.52187637    -0.92200
O1230       O  0.16341941  0.98542981  0.52973496    -0.92500
O1231       O  0.19103660  0.00906403  0.49347116    -0.91300
C1232       C  0.24700045  0.98084373  0.50160145     1.17700
H1233       H  0.18427257  0.98327897  0.57341118     0.33700
H1234       H  0.21513159  0.06439940  0.51886035     0.44500
H1235       H  0.28650304  0.00204976  0.56334527     0.38000
H1236       H  0.22904232  0.06533901  0.62092075     0.34500
H1237       H  0.15155643  0.04456939  0.50445363     0.26300
H1238       H  0.24854268  0.12121560  0.58602606     0.32300
H1239       H  0.30198850  0.07018768  0.62832740     0.38200
H1240       H  0.17581381  0.97200008  0.52774051     0.32600
H1241       H  0.22703613  0.92803471  0.57081896     0.31500
H1242       H  0.27007910  0.93755556  0.56181837     0.33200
H1243       H  0.31208273  0.00532596  0.60985243     0.32100
H1244       H  0.20318069  0.02049949  0.48577749     0.36100
H1245       H  0.29695119  0.05455186  0.49573439     0.28900
H1246       H  0.16039194  0.99782511  0.63436016     0.33100
H1247       H  0.24938760  0.03135002  0.64957969     0.36000
H1248       H  0.20490564  0.94190414  0.58347750     0.28600
H1249       H  0.29810667  0.02559766  0.49494118     0.41400
H1250       H  0.18369580  0.10437214  0.53995488     0.31500
H1251       H  0.16429392  0.06672869  0.51830145     0.39100
H1252       H  0.28853660  0.98839325  0.61116567     0.31000
H1253       H  0.22669331  0.11913204  0.60497153     0.31000
H1254       H  0.16669728  0.02177351  0.64961933     0.31300
Zr1255     Zr  0.28773657  0.03581652  0.37483192     2.17500
O1256       O  0.28821424  0.02816249  0.41945147    -0.51100
O1257       O  0.25904183  0.07028983  0.37433112    -0.74300
O1258       O  0.31051516  0.06784914  0.39579874    -0.81000
O1259       O  0.24461772  0.98364899  0.36314528    -0.82800
O1260       O  0.35037090  0.06786615  0.38163017    -0.78400
O1261       O  0.25329334  0.01340331  0.39198247    -0.90100
O1262       O  0.26270628  0.08820539  0.33625157    -0.76000
O1263       O  0.31421601  0.06012441  0.34971245    -0.85500
O1264       O  0.26548172  0.03856930  0.33639179    -0.85200
O1265       O  0.32695345  0.01441711  0.37370205    -0.72000
O1266       O  0.28370805  0.99498704  0.35898670    -0.84100
Zr1267     Zr  0.32636176  0.00083865  0.29376672     2.26400
Zr1268     Zr  0.35289424  0.03857126  0.34690346     2.06300
Zr1269     Zr  0.26136597  0.99720988  0.32105151     2.10000
Zr1270     Zr  0.29253394  0.06416926  0.31200869     1.78800
O1271       O  0.24494072  0.95668241  0.30968523    -0.92900
O1272       O  0.31189492  0.10457450  0.31840747    -0.40700
O1273       O  0.28819590  0.02282808  0.29705491    -0.77300
O1274       O  0.33206279  0.04316804  0.30768166    -0.96000
O1275       O  0.34768169  0.99686980  0.33229489    -0.89300
O1276       O  0.29996293  0.97540240  0.31868201    -0.92200
C1277       C  0.25315185  0.08653795  0.35801334     1.01600
C1278       C  0.24371336  0.99265195  0.38567583     1.14500
C1279       C  0.33275510  0.07603951  0.39554013     1.05300
O1280       O  0.37540950  0.07423669  0.33068914    -0.94300
O1281       O  0.38554451  0.01727776  0.32304893    -0.90100
O1282       O  0.36694123  0.01743340  0.28595990    -0.83200
C1283       C  0.38546624  0.01264842  0.29968075     1.11900
O1284       O  0.31653625  0.96376909  0.40206991    -0.96300
Zr1285     Zr  0.32136814  0.97289671  0.35791287     1.88900
O1286       O  0.33810037  0.95746628  0.29250986    -0.72900
O1287       O  0.38631042  0.03266500  0.37681632    -0.52200
O1288       O  0.36105649  0.96101915  0.37594650    -0.96900
O1289       O  0.29513977  0.93664415  0.36482392    -0.54100
O1290       O  0.33786568  0.94119142  0.33138675    -0.73500
C1291       C  0.34111218  0.93974842  0.30798627     0.98900
O1292       O  0.34043135  0.99089176  0.25184974    -0.62300
O1293       O  0.21886494  0.01218546  0.31707340    -0.57100
O1294       O  0.29841450  0.00248798  0.25896782    -0.93800
O1295       O  0.25907490  0.99858486  0.27377549    -0.92200
O1296       O  0.26092268  0.07088122  0.28043310    -0.92500
O1297       O  0.30435239  0.08310554  0.27262969    -0.91300
C1298       C  0.27498885  0.00118257  0.25565000     1.17700
H1299       H  0.24879871  0.04473371  0.33777702     0.33700
H1300       H  0.34231011  0.05268996  0.29642074     0.44500
H1301       H  0.29660431  0.95934784  0.31159695     0.38000
H1302       H  0.33425678  0.01406409  0.39001096     0.34500
H1303       H  0.30723750  0.10960340  0.33545246     0.26300
H1304       H  0.39149364  0.01517203  0.37477985     0.32300
H1305       H  0.36895453  0.97692394  0.38059917     0.38200
H1306       H  0.24544653  0.06448684  0.28794007     0.32600
H1307       H  0.21907021  0.02268132  0.30198300     0.31500
H1308       H  0.24932493  0.94580944  0.32383366     0.33200
H1309       H  0.28198986  0.94214942  0.37642714     0.32100
H1310       H  0.32253883  0.08091147  0.27116807     0.36100
H1311       H  0.34539236  0.00687909  0.24428665     0.28900
H1312       H  0.28121406  0.04332542  0.42709401     0.33100
H1313       H  0.32365106  0.97808953  0.41109111     0.36000
H1314       H  0.20915866  0.99736611  0.31222062     0.28600
H1315       H  0.35616731  0.98160735  0.25389681     0.41400
H1316       H  0.38357904  0.06822059  0.31540117     0.31500
H1317       H  0.32989614  0.10102828  0.31942023     0.39100
H1318       H  0.30548124  0.92493521  0.37454010     0.31000
H1319       H  0.40033661  0.04240926  0.37004215     0.31000
H1320       H  0.30596080  0.02820154  0.42428460     0.31300
Zr1321     Zr  0.00803388  0.02878712  0.66682262     2.17500
O1322       O  0.99512105  0.06965992  0.65213300    -0.51100
O1323       O  0.04541743  0.03858196  0.69051122    -0.74300
O1324       O  0.99819112  0.05541273  0.69998541    -0.81000
O1325       O  0.02071707  0.02030857  0.59884442    -0.82800
O1326       O  0.98920016  0.02947816  0.73225924    -0.78400
O1327       O  0.02903645  0.04613022  0.63121700    -0.90100
O1328       O  0.06664533  0.00237155  0.69524513    -0.76000
O1329       O  0.02021651  0.99943626  0.69754326    -0.85500
O1330       O  0.03199425  0.99846100  0.64559562    -0.85200
O1331       O  0.97023698  0.01372564  0.68566552    -0.72000
O1332       O  0.97963324  0.01307344  0.63675584    -0.84100
Zr1333     Zr  0.97940990  0.93622703  0.66326090     2.26400
Zr1334     Zr  0.98335933  0.98428421  0.71662359     2.06300
Zr1335     Zr  0.00358609  0.98236328  0.61571072     2.10000
Zr1336     Zr  0.04374022  0.96912974  0.67594372     1.78800
O1337       O  0.97583110  0.99273549  0.58156569    -0.92900
O1338       O  0.06151893  0.95171430  0.71372658    -0.40700
O1339       O  0.01693703  0.95173216  0.64519152    -0.77300
O1340       O  0.00701546  0.95335424  0.69415397    -0.96000
O1341       O  0.95564187  0.96617949  0.68617091    -0.89300
O1342       O  0.96651013  0.96570776  0.63293431    -0.92200
C1343       C  0.06326197  0.02550515  0.69937955     1.01600
C1344       C  0.03063185  0.03965220  0.60841269     1.14500
C1345       C  0.99371393  0.05155675  0.72275051     1.05300
O1346       O  0.00391757  0.98301015  0.75683683    -0.94300
O1347       O  0.98063114  0.94051953  0.73431236    -0.90100
O1348       O  0.97722400  0.91339971  0.70195511    -0.83200
C1349       C  0.97877089  0.91810542  0.72519701     1.11900
O1350       O  0.92392371  0.03660306  0.65738615    -0.96300
Zr1351     Zr  0.94314391  0.99569663  0.65554980     1.88900
O1352       O  0.93825176  0.92653901  0.64731240    -0.72900
O1353       O  0.94400171  0.98649022  0.73869849    -0.52200
O1354       O  0.90883509  0.99698702  0.68491313    -0.96900
O1355       O  0.92531782  0.01205429  0.61736486    -0.54100
O1356       O  0.91673016  0.96227730  0.64110617    -0.73500
C1357       C  0.91942607  0.93873734  0.63940035     0.98900
O1358       O  0.97775581  0.89114252  0.66771222    -0.62300
O1359       O  0.03768674  0.97235266  0.58770831    -0.57100
O1360       O  0.99822434  0.91510218  0.62763013    -0.93800
O1361       O  0.00194316  0.94243758  0.59577162    -0.92200
O1362       O  0.08032403  0.97140374  0.64950226    -0.92500
O1363       O  0.06057409  0.92735318  0.67207989    -0.91300
C1364       C  0.00272376  0.92057351  0.60485891     1.17700
H1365       H  0.04695894  0.00496044  0.63814263     0.33700
H1366       H  0.01368490  0.94074221  0.70489370     0.44500
H1367       H  0.95753742  0.95850302  0.61923016     0.38000
H1368       H  0.96111470  0.02702571  0.69344479     0.34500
H1369       H  0.07927509  0.95640287  0.71323893     0.26300
H1370       H  0.93314316  0.99667233  0.72796620     0.32300
H1371       H  0.89383827  0.99931554  0.67453942     0.38200
H1372       H  0.07504999  0.96371771  0.63365842     0.32600
H1373       H  0.03424923  0.98173881  0.57228945     0.31500
H1374       H  0.97414003  0.97720874  0.57190809     0.33200
H1375       H  0.90802285  0.00587924  0.61714655     0.32100
H1376       H  0.04694107  0.91632932  0.67760685     0.36100
H1377       H  0.96797200  0.88510384  0.65337712     0.28900
H1378       H  0.00588175  0.08177660  0.66079538     0.33100
H1379       H  0.93791687  0.04830703  0.65951041     0.36000
H1380       H  0.05242559  0.98054257  0.59501417     0.28600
H1381       H  0.99485277  0.88509963  0.66465377     0.41400
H1382       H  0.02106903  0.98862280  0.75344754     0.31500
H1383       H  0.05441502  0.96185717  0.72730575     0.39100
H1384       H  0.93368020  0.00273586  0.60394880     0.31000
H1385       H  0.93706767  0.96949337  0.73751069     0.31000
H1386       H  0.97832949  0.07236404  0.65908156     0.31300
Zr1387     Zr  0.92534349  0.67905765  0.74911316     2.17500
O1388       O  0.93674648  0.64301653  0.72411378    -0.51100
O1389       O  0.90892773  0.65933887  0.78647244    -0.74300
O1390       O  0.96241975  0.65943971  0.76351560    -0.81000
O1391       O  0.85851171  0.67731282  0.72709886    -0.82800
O1392       O  0.99224693  0.68927105  0.76042630    -0.78400
O1393       O  0.89163544  0.65296912  0.73709434    -0.90100
O1394       O  0.89226583  0.68998817  0.81023997    -0.76000
O1395       O  0.94116875  0.70672297  0.77984468    -0.85500
O1396       O  0.88962554  0.70167527  0.76158627    -0.85200
O1397       O  0.95653098  0.70355837  0.72854679    -0.72000
O1398       O  0.90959970  0.69750688  0.71180443    -0.84100
Zr1399     Zr  0.91636962  0.77323728  0.73655361     2.26400
Zr1400     Zr  0.97135273  0.73237409  0.75931061     2.06300
Zr1401     Zr  0.87358670  0.71997021  0.72481861     2.10000
Zr1402     Zr  0.90519130  0.72896399  0.79247353     1.78800
O1403       O  0.85782572  0.70712453  0.68442270    -0.92900
O1404       O  0.93225173  0.71862253  0.82722641    -0.40700
O1405       O  0.88607710  0.74825322  0.75684758    -0.77300
O1406       O  0.93512295  0.75498338  0.77277218    -0.96000
O1407       O  0.95324163  0.75193533  0.72395686    -0.89300
O1408       O  0.90378171  0.74530154  0.70491306    -0.92200
C1409       C  0.89642899  0.66717316  0.80519691     1.01600
C1410       C  0.86897052  0.65626889  0.73111552     1.14500
C1411       C  0.98508466  0.66602670  0.76224508     1.05300
O1412       O  0.98692917  0.73663436  0.80152260    -0.94300
O1413       O  0.98151424  0.77915048  0.75794176    -0.90100
O1414       O  0.94749304  0.80218011  0.74717463    -0.83200
C1415       C  0.97012550  0.80030266  0.75357975     1.11900
O1416       O  0.94734432  0.68606341  0.66923254    -0.96300
Zr1417     Zr  0.94012617  0.72389480  0.69291454     1.88900
O1418       O  0.93348667  0.79519458  0.70167548    -0.72900
O1419       O  0.01392648  0.73624962  0.74464095    -0.52200
O1420       O  0.98264941  0.71841940  0.67854255    -0.96900
O1421       O  0.91928273  0.72839695  0.65296789    -0.54100
O1422       O  0.95326512  0.76495789  0.67981272    -0.73500
C1423       C  0.94847275  0.78772920  0.68491474     0.98900
O1424       O  0.89952247  0.80529667  0.76364698    -0.62300
O1425       O  0.83183127  0.72455215  0.74155503    -0.57100
O1426       O  0.87999311  0.79007847  0.71606595    -0.93800
O1427       O  0.85431324  0.75742394  0.70831808    -0.92200
O1428       O  0.86645333  0.73606193  0.81461096    -0.92500
O1429       O  0.90195061  0.76727983  0.81638116    -0.91300
C1430       C  0.86024432  0.78045634  0.70694184     1.17700
H1431       H  0.87663332  0.69126701  0.76820250     0.33700
H1432       H  0.94011222  0.76788874  0.78416402     0.44500
H1433       H  0.89728772  0.75379576  0.69044254     0.38000
H1434       H  0.96968403  0.69296124  0.72242113     0.34500
H1435       H  0.94346903  0.73299847  0.82914467     0.26300
H1436       H  0.01247560  0.74505986  0.72858869     0.32300
H1437       H  0.98256873  0.72455258  0.66122213     0.38200
H1438       H  0.85557800  0.74447039  0.80242704     0.32600
H1439       H  0.83082127  0.71213813  0.75503451     0.31500
H1440       H  0.86775868  0.69232600  0.67991020     0.33200
H1441       H  0.91672943  0.74647451  0.65074773     0.32100
H1442       H  0.91855450  0.76994567  0.82378655     0.36100
H1443       H  0.90044744  0.82081033  0.75387597     0.28900
H1444       H  0.93859255  0.62903026  0.73588845     0.33100
H1445       H  0.93112384  0.67745383  0.66904839     0.36000
H1446       H  0.83197688  0.74074615  0.75024600     0.28600
H1447       H  0.88155505  0.80160639  0.76483406     0.41400
H1448       H  0.00511589  0.73846650  0.79963944     0.31500
H1449       H  0.92134099  0.71920729  0.84199696     0.39100
H1450       H  0.90242211  0.72162602  0.65564756     0.31000
H1451       H  0.02177456  0.74844356  0.75593826     0.31000
H1452       H  0.95373124  0.64635761  0.71793651     0.31300
Zr1453     Zr  0.99856046  0.51969932  0.82142662     2.17500
O1454       O  0.00187491  0.56204636  0.83739587    -0.51100
O1455       O  0.96114944  0.52492990  0.79613144    -0.74300
O1456       O  0.00983173  0.54969537  0.79135956    -0.81000
O1457       O  0.98452088  0.50514566  0.88863371    -0.82800
O1458       O  0.02324515  0.52765598  0.75789325    -0.78400
O1459       O  0.97723436  0.53375453  0.85840035    -0.90100
O1460       O  0.93772827  0.49131410  0.80460515    -0.76000
O1461       O  0.98862671  0.49196120  0.78838328    -0.85500
O1462       O  0.97633886  0.48659093  0.84003460    -0.85200
O1463       O  0.03833805  0.50823529  0.80403077    -0.72000
O1464       O  0.02708321  0.50310950  0.85128502    -0.84100
Zr1465     Zr  0.03327901  0.42898070  0.81899200     2.26400
Zr1466     Zr  0.02760582  0.48126088  0.76993393     2.06300
Zr1467     Zr  0.00437367  0.46953486  0.86950213     2.10000
Zr1468     Zr  0.96732280  0.45823662  0.80798363     1.78800
O1469       O  0.02694916  0.47786911  0.90775511    -0.92900
O1470       O  0.94633144  0.44869577  0.76907318    -0.40700
O1471       O  0.99459020  0.44020026  0.83762299    -0.77300
O1472       O  0.00545551  0.44733849  0.78929084    -0.96000
O1473       O  0.05565015  0.46199316  0.79945016    -0.89300
O1474       O  0.04299504  0.45601571  0.85239624    -0.92200
C1475       C  0.94129732  0.51201373  0.79384596     1.01600
C1476       C  0.97503663  0.52540402  0.88054637     1.14500
C1477       C  0.01723900  0.54854678  0.76905608     1.05300
O1478       O  0.00465527  0.48214829  0.73103213    -0.94300
O1479       O  0.03285343  0.43892691  0.74929897    -0.90100
O1480       O  0.04126142  0.41020573  0.77935865    -0.83200
C1481       C  0.03732501  0.41624701  0.75678041     1.11900
O1482       O  0.08576877  0.52892599  0.83571443    -0.96300
Zr1483     Zr  0.06546604  0.48864754  0.83341211     1.88900
O1484       O  0.07509061  0.41863256  0.83204544    -0.72900
O1485       O  0.06593588  0.48805039  0.74696360    -0.52200
O1486       O  0.10212680  0.49339865  0.80736443    -0.96900
O1487       O  0.07887973  0.49883331  0.87542952    -0.54100
O1488       O  0.09289977  0.45463510  0.84472944    -0.73500
C1489       C  0.09245425  0.43097802  0.84253666     0.98900
O1490       O  0.02553427  0.38559984  0.80839535    -0.62300
O1491       O  0.96670240  0.45483622  0.88982677    -0.57100
O1492       O  0.02302663  0.40394817  0.85512923    -0.93800
O1493       O  0.00867925  0.42836775  0.88650540    -0.92200
O1494       O  0.93492942  0.44681402  0.83729307    -0.92500
O1495       O  0.95676450  0.41472930  0.80160950    -0.91300
C1496       C  0.01492108  0.40742484  0.87722617     1.17700
H1497       H  0.96089571  0.49176043  0.84753045     0.33700
H1498       H  0.99992315  0.43506046  0.77732038     0.44500
H1499       H  0.05223677  0.44779911  0.86541072     0.38000
H1500       H  0.04723929  0.52249577  0.79809834     0.34500
H1501       H  0.92934831  0.45544882  0.77096702     0.26300
H1502       H  0.06297488  0.48011812  0.73064622     0.32300
H1503       H  0.10097974  0.48002080  0.79482641     0.38200
H1504       H  0.92008037  0.44391092  0.82685290     0.32600
H1505       H  0.97017434  0.45624249  0.90780299     0.31500
H1506       H  0.03746756  0.46303929  0.91038499     0.33200
H1507       H  0.07928993  0.48275811  0.88433849     0.32100
H1508       H  0.96302237  0.40609928  0.81659288     0.36100
H1509       H  0.03720544  0.37574396  0.81862266     0.28900
H1510       H  0.99108953  0.57257116  0.82684084     0.33100
H1511       H  0.07200574  0.54108330  0.83571711     0.36000
H1512       H  0.95390180  0.46762867  0.88654574     0.28600
H1513       H  0.00884696  0.38174252  0.81504892     0.41400
H1514       H  0.98699939  0.48123954  0.73602362     0.31500
H1515       H  0.95427583  0.45956985  0.75663093     0.39100
H1516       H  0.06475900  0.50787315  0.88293841     0.31000
H1517       H  0.06610706  0.50606595  0.74332021     0.31000
H1518       H  0.01906361  0.56753284  0.83388071     0.31300
Zr1519     Zr  0.10139762  0.27540925  0.74763750     2.17500
O1520       O  0.11762539  0.30873853  0.72175870    -0.51100
O1521       O  0.08285711  0.29773531  0.78193731    -0.74300
O1522       O  0.06858835  0.30218581  0.73605913    -0.81000
O1523       O  0.16734840  0.26344862  0.76686408    -0.82800
O1524       O  0.03426445  0.27766414  0.73203100    -0.78400
O1525       O  0.13810784  0.29389700  0.76605080    -0.90100
O1526       O  0.07130772  0.26747511  0.80903274    -0.76000
O1527       O  0.06763366  0.25316372  0.76558835    -0.85500
O1528       O  0.11865977  0.24916987  0.77862213    -0.85200
O1529       O  0.08040945  0.25384217  0.71434869    -0.72000
O1530       O  0.13011278  0.25080606  0.72443839    -0.84100
Zr1531     Zr  0.09469901  0.17947561  0.74193840     2.26400
Zr1532     Zr  0.04648527  0.23161796  0.73334831     2.06300
Zr1533     Zr  0.14734236  0.22462362  0.75575706     2.10000
Zr1534     Zr  0.08525640  0.22688408  0.79608269     1.78800
O1535       O  0.18222256  0.22268598  0.72710744    -0.92900
O1536       O  0.04496952  0.21640565  0.81385167    -0.40700
O1537       O  0.11485638  0.20116355  0.77521046    -0.77300
O1538       O  0.06509912  0.20462009  0.76375592    -0.96000
O1539       O  0.07520742  0.20520042  0.71139721    -0.89300
O1540       O  0.12797255  0.20165892  0.72329205    -0.92200
C1541       C  0.07184611  0.29002463  0.80149156     1.01600
C1542       C  0.15978681  0.28556726  0.77124568     1.14500
C1543       C  0.04540824  0.29928550  0.73282751     1.05300
O1544       O  0.00950270  0.23543974  0.75899962    -0.94300
O1545       O  0.02572448  0.18888482  0.73348391    -0.90100
O1546       O  0.05550590  0.15887250  0.73674701    -0.83200
C1547       C  0.03283959  0.16566501  0.73509278     1.11900
O1548       O  0.11207500  0.26431144  0.66721229    -0.96300
Zr1549     Zr  0.10888601  0.22716502  0.69288212     1.88900
O1550       O  0.10453172  0.15738456  0.70407661    -0.72900
O1551       O  0.02173695  0.23508972  0.69567578    -0.52200
O1552       O  0.08197709  0.22253287  0.65681451    -0.96900
O1553       O  0.14926810  0.22880308  0.67249651    -0.54100
O1554       O  0.11569472  0.18616870  0.67532486    -0.73500
C1555       C  0.11276038  0.16376656  0.68273446     0.98900
O1556       O  0.08407479  0.14387116  0.76778779    -0.62300
O1557       O  0.17685762  0.22602828  0.79011809    -0.57100
O1558       O  0.13105143  0.15591749  0.75405522    -0.93800
O1559       O  0.16191206  0.18312167  0.76355844    -0.92200
O1560       O  0.10697742  0.23687128  0.83444718    -0.92500
O1561       O  0.08924787  0.19119897  0.82354351    -0.91300
C1562       C  0.15301532  0.16128280  0.76138276     1.17700
H1563       H  0.12647386  0.25803270  0.79208179     0.33700
H1564       H  0.05268856  0.19420858  0.77142369     0.44500
H1565       H  0.14012336  0.19058933  0.71600278     0.38000
H1566       H  0.07384579  0.26578016  0.70247126     0.34500
H1567       H  0.04682943  0.21948197  0.83186896     0.26300
H1568       H  0.00436724  0.23572312  0.70167575     0.32300
H1569       H  0.06524003  0.21949746  0.66372105     0.38200
H1570       H  0.09364277  0.23867875  0.84698300     0.32600
H1571       H  0.16701543  0.22163154  0.80497316     0.31500
H1572       H  0.19575683  0.23172277  0.73566046     0.33200
H1573       H  0.14646961  0.22142092  0.65588371     0.32100
H1574       H  0.07911767  0.17806885  0.81562563     0.36100
H1575       H  0.09091329  0.12918438  0.75911594     0.28900
H1576       H  0.11194150  0.32429265  0.72973471     0.33100
H1577       H  0.11643651  0.25838906  0.65037098     0.36000
H1578       H  0.18851343  0.21202498  0.78777192     0.28600
H1579       H  0.09424987  0.14558878  0.78300528     0.41400
H1580       H  0.01349499  0.24885694  0.77092026     0.31500
H1581       H  0.03368942  0.22970465  0.80809257     0.39100
H1582       H  0.15956296  0.21640229  0.68131366     0.31000
H1583       H  0.02502839  0.25207573  0.68945201     0.31000
H1584       H  0.10805841  0.30770790  0.70609478     0.31300
Zr1585     Zr  0.42707280  0.80920298  0.24394888     2.17500
O1586       O  0.43114898  0.84928421  0.26481980    -0.51100
O1587       O  0.41480204  0.82796069  0.20462454    -0.74300
O1588       O  0.46608668  0.82955674  0.23770422    -0.81000
O1589       O  0.36054894  0.80867488  0.26848868    -0.82800
O1590       O  0.49583165  0.79958381  0.23975680    -0.78400
O1591       O  0.39284003  0.83372880  0.25808004    -0.90100
O1592       O  0.40365651  0.79707995  0.17814617    -0.76000
O1593       O  0.44635961  0.78162674  0.21518380    -0.85500
O1594       O  0.39344054  0.78627687  0.22713330    -0.85200
O1595       O  0.45623252  0.78539693  0.26819513    -0.72000
O1596       O  0.40748751  0.78959159  0.27869990    -0.84100
Zr1597     Zr  0.41848628  0.71399862  0.25652377     2.26400
Zr1598     Zr  0.47451566  0.75652594  0.23931454     2.06300
Zr1599     Zr  0.37383311  0.76637886  0.26129025     2.10000
Zr1600     Zr  0.41249440  0.75824785  0.19873896     1.78800
O1601       O  0.34278727  0.77320234  0.29344905    -0.92900
O1602       O  0.44349468  0.75831303  0.16579812    -0.40700
O1603       O  0.39041769  0.73764727  0.23179544    -0.77300
O1604       O  0.44031127  0.73292192  0.22214070    -0.96000
O1605       O  0.45304213  0.73682418  0.27254404    -0.89300
O1606       O  0.40187593  0.74241519  0.28586786    -0.92200
C1607       C  0.40558399  0.81994655  0.18418609     1.01600
C1608       C  0.37092923  0.82987476  0.26610686     1.14500
C1609       C  0.48874761  0.82294442  0.23880578     1.05300
O1610       O  0.49302161  0.75078547  0.19851344    -0.94300
O1611       O  0.48508834  0.71025237  0.24642173    -0.90100
O1612       O  0.45006565  0.68675998  0.24312557    -0.83200
C1613       C  0.47336013  0.68886355  0.24577938     1.11900
O1614       O  0.43483628  0.80251640  0.32640389    -0.96300
Zr1615     Zr  0.43619252  0.76461690  0.30175299     1.88900
O1616       O  0.43788936  0.69330225  0.29137811    -0.72900
O1617       O  0.51639016  0.75332670  0.25607248    -0.52200
O1618       O  0.47549855  0.77440538  0.32184982    -0.96900
O1619       O  0.41189830  0.75549788  0.33880848    -0.54100
O1620       O  0.45297859  0.72481495  0.31507309    -0.73500
C1621       C  0.45125823  0.70180862  0.30905471     0.98900
O1622       O  0.40082603  0.67841708  0.23478830    -0.62300
O1623       O  0.34106103  0.76549483  0.23008286    -0.57100
O1624       O  0.38107659  0.69781592  0.27619518    -0.93800
O1625       O  0.35300917  0.72937952  0.27631251    -0.92200
O1626       O  0.37442609  0.75467126  0.17460064    -0.92500
O1627       O  0.40746953  0.72003267  0.17511224    -0.91300
C1628       C  0.35977457  0.70715936  0.28142113     1.17700
H1629       H  0.38125399  0.79687540  0.21928491     0.33700
H1630       H  0.44669620  0.72050253  0.21121150     0.44500
H1631       H  0.39390900  0.73454874  0.29986350     0.38000
H1632       H  0.46885879  0.79641706  0.27580580     0.34500
H1633       H  0.43392030  0.76166853  0.15047710     0.26300
H1634       H  0.51420315  0.74560078  0.27259971     0.32300
H1635       H  0.47297597  0.76997722  0.33950849     0.38200
H1636       H  0.36265508  0.76629516  0.18259632     0.32600
H1637       H  0.32581075  0.76125939  0.23938477     0.31500
H1638       H  0.32672329  0.77406995  0.28455106     0.33200
H1639       H  0.39726039  0.76655745  0.33766232     0.32100
H1640       H  0.39745178  0.70911932  0.18596798     0.36100
H1641       H  0.40995200  0.67728079  0.21887881     0.28900
H1642       H  0.43562314  0.86156683  0.25190349     0.33100
H1643       H  0.43088430  0.81583965  0.31437693     0.36000
H1644       H  0.33867079  0.78304780  0.22518296     0.28600
H1645       H  0.40625642  0.66370405  0.24438361     0.41400
H1646       H  0.50814676  0.76121102  0.19884180     0.31500
H1647       H  0.45338875  0.77357349  0.16840473     0.39100
H1648       H  0.42177360  0.76223256  0.35277526     0.31000
H1649       H  0.52461790  0.74038197  0.24593057     0.31000
H1650       H  0.44587365  0.84799786  0.27574934     0.31300
Zr1651     Zr  0.47394456  0.55766107  0.34801647     2.17500
O1652       O  0.46959061  0.60246369  0.34225251    -0.51100
O1653       O  0.43195833  0.56643825  0.36251414    -0.74300
O1654       O  0.47143591  0.57873810  0.30832275    -0.81000
O1655       O  0.50814044  0.55647631  0.41142989    -0.82800
O1656       O  0.47719687  0.55057853  0.27724008    -0.78400
O1657       O  0.49362590  0.58179267  0.38097843    -0.90100
O1658       O  0.41165404  0.53038252  0.37035342    -0.76000
O1659       O  0.45171459  0.52583588  0.32636756    -0.85500
O1660       O  0.46208803  0.52950004  0.38013733    -0.85200
O1661       O  0.50287261  0.54016778  0.31853215    -0.72000
O1662       O  0.51160797  0.54392644  0.36727339    -0.84100
Zr1663     Zr  0.50581431  0.46653287  0.34865940     2.26400
Zr1664     Zr  0.48047580  0.50773661  0.29687482     2.06300
Zr1665     Zr  0.49964711  0.51458822  0.39842050     2.10000
Zr1666     Zr  0.44009298  0.49764780  0.35867438     1.78800
O1667       O  0.52790139  0.52026310  0.43332952    -0.92900
O1668       O  0.40415482  0.49461130  0.33137733    -0.40700
O1669       O  0.47695809  0.48236166  0.37851818    -0.77300
O1670       O  0.46782871  0.47966677  0.32907637    -0.96000
O1671       O  0.51758964  0.49524838  0.31716899    -0.89300
O1672       O  0.52870328  0.49812161  0.36953581    -0.92200
C1673       C  0.41321314  0.55406322  0.37031056     1.01600
C1674       C  0.50432511  0.57782165  0.40188216     1.14500
C1675       C  0.47441078  0.57325288  0.28540127     1.05300
O1676       O  0.44146164  0.50353345  0.27448090    -0.94300
O1677       O  0.48595312  0.46157748  0.28369853    -0.90100
O1678       O  0.49997066  0.43805338  0.31609051    -0.83200
C1679       C  0.49282689  0.44032876  0.29376602     1.11900
O1680       O  0.55174583  0.57029520  0.33300802    -0.96300
Zr1681     Zr  0.54005413  0.52688616  0.33838498     1.88900
O1682       O  0.54274173  0.45990837  0.32334745    -0.72900
O1683       O  0.50319888  0.50803958  0.25777706    -0.52200
O1684       O  0.56391642  0.53321343  0.30053878    -0.96900
O1685       O  0.57153005  0.53572557  0.36978519    -0.54100
O1686       O  0.56706169  0.49132604  0.33551133    -0.73500
C1687       C  0.56240233  0.47305407  0.32130625     0.98900
O1688       O  0.49014547  0.42612875  0.36173330    -0.62300
O1689       O  0.46974838  0.51291102  0.43223563    -0.57100
O1690       O  0.52754886  0.45039784  0.38401342    -0.93800
O1691       O  0.51711889  0.47648515  0.41555851    -0.92200
O1692       O  0.42032971  0.48551150  0.39746072    -0.92500
O1693       O  0.42903462  0.45372816  0.35844863    -0.91300
C1694       C  0.52789402  0.45717300  0.40674032     1.17700
H1695       H  0.45247770  0.53733864  0.39313404     0.33700
H1696       H  0.45932593  0.46562242  0.32187549     0.44500
H1697       H  0.54367397  0.49249244  0.37758566     0.38000
H1698       H  0.50936241  0.55262559  0.30736218     0.34500
H1699       H  0.40665561  0.47913748  0.32180455     0.26300
H1700       H  0.51258504  0.49224190  0.25740696     0.32300
H1701       H  0.55169520  0.53936875  0.28826485     0.38200
H1702       H  0.43344331  0.48732702  0.41018558     0.32600
H1703       H  0.47421017  0.49768732  0.44152359     0.31500
H1704       H  0.54433452  0.51469870  0.42723976     0.33200
H1705       H  0.56205238  0.54155733  0.38441202     0.32100
H1706       H  0.41110470  0.45300960  0.36228300     0.36100
H1707       H  0.48498341  0.42850935  0.37921597     0.28900
H1708       H  0.48644989  0.60960471  0.34403696     0.33100
H1709       H  0.54160736  0.57945142  0.34532974     0.36000
H1710       H  0.47467143  0.52667412  0.44339725     0.28600
H1711       H  0.47422227  0.42403667  0.35277611     0.41400
H1712       H  0.43320355  0.48913032  0.28230609     0.31500
H1713       H  0.39006752  0.49092393  0.34259815     0.39100
H1714       H  0.58069087  0.55053873  0.36396614     0.31000
H1715       H  0.49025868  0.50609854  0.24486597     0.31000
H1716       H  0.46029258  0.60854070  0.35688823     0.31300
Zr1717     Zr  0.59204570  0.31589802  0.26969248     2.17500
O1718       O  0.58236843  0.35561693  0.24997741    -0.51100
O1719       O  0.60679905  0.33593715  0.30737083    -0.74300
O1720       O  0.55248586  0.33324094  0.28019739    -0.81000
O1721       O  0.65695368  0.31818232  0.24050862    -0.82800
O1722       O  0.52449429  0.30163903  0.28258165    -0.78400
O1723       O  0.62408831  0.34194431  0.25226909    -0.90100
O1724       O  0.62200736  0.30612834  0.33301343    -0.76000
O1725       O  0.57758805  0.28717572  0.30032209    -0.85500
O1726       O  0.62844801  0.29497958  0.28270509    -0.85200
O1727       O  0.56187146  0.28994528  0.24933465    -0.72000
O1728       O  0.60845553  0.29715566  0.23288315    -0.84100
Zr1729     Zr  0.60394076  0.22048045  0.25708181     2.26400
Zr1730     Zr  0.54808856  0.26022626  0.27968608     2.06300
Zr1731     Zr  0.64482740  0.27551877  0.24655937     2.10000
Zr1732     Zr  0.61457006  0.26630158  0.31315414     1.78800
O1733       O  0.66738254  0.28514172  0.20864001    -0.92900
O1734       O  0.59097400  0.26413970  0.35164356    -0.40700
O1735       O  0.63331474  0.24627400  0.27785742    -0.77300
O1736       O  0.58534140  0.23915636  0.29336303    -0.96000
O1737       O  0.56674605  0.24121074  0.24449605    -0.89300
O1738       O  0.61572344  0.24937378  0.22587950    -0.92200
C1739       C  0.61799217  0.32881079  0.32711140     1.01600
C1740       C  0.64591268  0.33898483  0.24339629     1.14500
C1741       C  0.53033447  0.32528106  0.28215621     1.05300
O1742       O  0.52816086  0.25419362  0.31977145    -0.94300
O1743       O  0.53879515  0.21316218  0.27833480    -0.90100
O1744       O  0.57396348  0.19088818  0.26997955    -0.83200
C1745       C  0.55090158  0.19219568  0.27497115     1.11900
O1746       O  0.56914615  0.30759223  0.19066015    -0.96300
Zr1747     Zr  0.57891982  0.27000874  0.21380193     1.88900
O1748       O  0.58464460  0.19812540  0.22329825    -0.72900
O1749       O  0.50892633  0.25668120  0.25734060    -0.52200
O1750       O  0.53698748  0.27511503  0.19732077    -0.96900
O1751       O  0.60212012  0.26570452  0.17520704    -0.54100
O1752       O  0.56637512  0.22887332  0.20091946    -0.73500
C1753       C  0.57010741  0.20601520  0.20628938     0.98900
O1754       O  0.62287864  0.18707019  0.28099237    -0.62300
O1755       O  0.68231991  0.27596768  0.27181890    -0.57100
O1756       O  0.64095778  0.20601324  0.23524858    -0.93800
O1757       O  0.66639236  0.23940294  0.23051206    -0.92200
O1758       O  0.65725043  0.26562428  0.32815849    -0.92500
O1759       O  0.62533901  0.22893581  0.33619135    -0.91300
C1760       C  0.66092693  0.21645669  0.22747443     1.17700
H1761       H  0.64080152  0.30628594  0.28918941     0.33700
H1762       H  0.58085293  0.22625353  0.30510280     0.44500
H1763       H  0.62261379  0.24148862  0.21132771     0.38000
H1764       H  0.54813743  0.29985357  0.24333517     0.34500
H1765       H  0.58054299  0.27926988  0.35166033     0.26300
H1766       H  0.51013524  0.24087173  0.24804044     0.32300
H1767       H  0.53092972  0.25827863  0.19316498     0.38200
H1768       H  0.66406389  0.28221700  0.32416551     0.32600
H1769       H  0.69599412  0.27340817  0.25983251     0.31500
H1770       H  0.65424320  0.28841368  0.19619569     0.33200
H1771       H  0.60500491  0.28283906  0.16928340     0.32100
H1772       H  0.62682491  0.21583529  0.32339543     0.36100
H1773       H  0.62361810  0.17277355  0.26947778     0.28900
H1774       H  0.57856933  0.36748079  0.26351686     0.33100
H1775       H  0.56688115  0.32051953  0.20354543     0.36000
H1776       H  0.68416626  0.29344286  0.27721723     0.28600
H1777       H  0.64040525  0.19213810  0.28325964     0.41400
H1778       H  0.53563941  0.23875413  0.32636692     0.31500
H1779       H  0.57909012  0.25037397  0.34906834     0.39100
H1780       H  0.59005012  0.25861938  0.16329651     0.31000
H1781       H  0.49638390  0.25350551  0.27036206     0.31000
H1782       H  0.56657849  0.35330451  0.24084923     0.31300
Zr1783     Zr  0.50606644  0.97031656  0.17747105     2.17500
O1784       O  0.51127436  0.92861482  0.16034830    -0.51100
O1785       O  0.46983393  0.96569113  0.20447983    -0.74300
O1786       O  0.51549906  0.93980688  0.20763440    -0.81000
O1787       O  0.49367742  0.98363038  0.11032571    -0.82800
O1788       O  0.52812927  0.96206954  0.24137719    -0.78400
O1789       O  0.48363398  0.95677094  0.14135082    -0.90100
O1790       O  0.44646677  0.00012206  0.19887351    -0.76000
O1791       O  0.49614349  0.99884379  0.20957730    -0.85500
O1792       O  0.48500001  0.00375703  0.15772655    -0.85200
O1793       O  0.54509263  0.98106480  0.19652107    -0.72000
O1794       O  0.53573867  0.98536956  0.14797165    -0.84100
Zr1795     Zr  0.54328036  0.06007372  0.17963443     2.26400
Zr1796     Zr  0.53416044  0.00885242  0.22973692     2.06300
Zr1797     Zr  0.51447809  0.01947016  0.12877781     2.10000
Zr1798     Zr  0.47585787  0.03253126  0.18930762     1.78800
O1799       O  0.53972789  0.01167931  0.09209648    -0.92900
O1800       O  0.45923911  0.04618167  0.22907982    -0.40700
O1801       O  0.50465353  0.04936600  0.16022506    -0.77300
O1802       O  0.51373257  0.04309772  0.20881751    -0.96000
O1803       O  0.56361614  0.02649569  0.20059162    -0.89300
O1804       O  0.55308513  0.03185596  0.14708934    -0.92200
C1805       C  0.45082227  0.97925957  0.20920932     1.01600
C1806       C  0.48273792  0.96427264  0.11886173     1.14500
C1807       C  0.52213353  0.94104306  0.23020597     1.05300
O1808       O  0.50928250  0.00817883  0.26743638    -0.94300
O1809       O  0.53943289  0.05164541  0.25028906    -0.90100
O1810       O  0.54379895  0.08065080  0.21966410    -0.83200
C1811       C  0.54179021  0.07465541  0.24257320     1.11900
O1812       O  0.59237562  0.95837136  0.17700709    -0.96300
Zr1813     Zr  0.57364716  0.99851714  0.16761620     1.88900
O1814       O  0.58649106  0.06648860  0.16724389    -0.72900
O1815       O  0.57192627  0.00044216  0.25309177    -0.52200
O1816       O  0.61227181  0.99641967  0.19101069    -0.96900
O1817       O  0.58499900  0.97949761  0.12818849    -0.54100
O1818       O  0.60272611  0.02993482  0.15412781    -0.73500
C1819       C  0.60350655  0.05349752  0.15683671     0.98900
O1820       O  0.55170267  0.10433034  0.18513418    -0.62300
O1821       O  0.47926755  0.03445276  0.10439575    -0.57100
O1822       O  0.52736235  0.08530570  0.14538879    -0.93800
O1823       O  0.51923064  0.06083574  0.11198634    -0.92200
O1824       O  0.44162137  0.04112214  0.16105197    -0.92500
O1825       O  0.46348404  0.07599624  0.18921645    -0.91300
C1826       C  0.52169777  0.08200372  0.12247353     1.17700
H1827       H  0.46952573  0.99918753  0.15003781     0.33700
H1828       H  0.50736686  0.05530121  0.22034761     0.44500
H1829       H  0.56284307  0.03944343  0.13409748     0.38000
H1830       H  0.55331472  0.96662333  0.20309065     0.34500
H1831       H  0.44109518  0.04367843  0.22770570     0.26300
H1832       H  0.56614968  0.99694767  0.27017869     0.32300
H1833       H  0.60877203  0.00515660  0.20678091     0.38200
H1834       H  0.42646568  0.03748346  0.17076162     0.32600
H1835       H  0.46697206  0.02081901  0.10408364     0.31500
H1836       H  0.53350042  0.99584934  0.08516138     0.33200
H1837       H  0.60307798  0.98237628  0.12670091     0.32100
H1838       H  0.47923378  0.08529194  0.19104490     0.36100
H1839       H  0.56184503  0.10935389  0.17065133     0.28900
H1840       H  0.49970370  0.91767979  0.16952032     0.33100
H1841       H  0.58641236  0.94694311  0.16394397     0.36000
H1842       H  0.47140212  0.04726078  0.11498427     0.28600
H1843       H  0.53562972  0.11297391  0.18283214     0.41400
H1844       H  0.52107211  0.00361357  0.28076829     0.31500
H1845       H  0.46481058  0.03342253  0.24106205     0.39100
H1846       H  0.57754825  0.99037311  0.11541507     0.31000
H1847       H  0.57764398  0.98413853  0.24678035     0.31000
H1848       H  0.52812211  0.92312927  0.16528430     0.31300
Zr1849     Zr  0.17963662  0.30824969  0.93690225     2.17500
O1850       O  0.13697436  0.29695885  0.92667729    -0.51100
O1851       O  0.18674989  0.30462695  0.89228599    -0.74300
O1852       O  0.15737961  0.34508146  0.92313741    -0.81000
O1853       O  0.18470588  0.24807978  0.97217308    -0.82800
O1854       O  0.17748691  0.37968586  0.93653691    -0.78400
O1855       O  0.15791538  0.27011020  0.94790034    -0.90100
O1856       O  0.22323030  0.32414464  0.88443372    -0.76000
O1857       O  0.20769309  0.34123901  0.93016120    -0.85500
O1858       O  0.21836573  0.28768433  0.92908007    -0.85200
O1859       O  0.17805446  0.33302707  0.97430582    -0.72000
O1860       O  0.19213525  0.28770172  0.97357717    -0.84100
Zr1861     Zr  0.25646296  0.32360706  0.99539707     2.26400
Zr1862     Zr  0.20744013  0.36578161  0.96705969     2.06300
Zr1863     Zr  0.22872848  0.26506429  0.96649807     2.10000
Zr1864     Zr  0.24641804  0.32181890  0.92270619     1.78800
O1865       O  0.23366225  0.22705026  0.99040393    -0.92900
O1866       O  0.25968601  0.36134135  0.90518658    -0.40700
O1867       O  0.25655501  0.29850401  0.95887457    -0.77300
O1868       O  0.24735930  0.34778778  0.95910557    -0.96000
O1869       O  0.21759385  0.34247563  0.00310001    -0.89300
O1870       O  0.22934150  0.28961504  0.00367428    -0.92200
C1871       C  0.20268943  0.31449066  0.87757667     1.01600
C1872       C  0.16246075  0.25255277  0.96335755     1.14500
C1873       C  0.16114383  0.36855908  0.92332855     1.05300
O1874       O  0.22961746  0.39915804  0.94607628    -0.94300
O1875       O  0.22689955  0.38759585  0.00172831    -0.90100
O1876       O  0.25859922  0.36331424  0.01565304    -0.83200
C1877       C  0.24526117  0.38293687  0.01620586     1.11900
O1878       O  0.14656316  0.29913454  0.01587682    -0.96300
Zr1879     Zr  0.19022356  0.30973047  0.01111705     1.88900
O1880       O  0.25496605  0.31726557  0.03985040    -0.72900
O1881       O  0.17547042  0.39309738  0.98393555    -0.52200
O1882       O  0.16828231  0.34228125  0.03351085    -0.96900
O1883       O  0.18002722  0.27001791  0.03016250    -0.54100
O1884       O  0.21398480  0.31399000  0.04953014    -0.73500
C1885       C  0.23703155  0.31583660  0.05539515     0.98900
O1886       O  0.29862868  0.33934357  0.99059896    -0.62300
O1887       O  0.23423409  0.23657566  0.93179488    -0.57100
O1888       O  0.28928930  0.29382263  0.99783337    -0.93800
O1889       O  0.27534997  0.26136808  0.97455123    -0.92200
O1890       O  0.26426099  0.29162974  0.89420676    -0.92500
O1891       O  0.29152948  0.32339434  0.92019440    -0.91300
C1892       C  0.29286286  0.27348445  0.98623548     1.17700
H1893       H  0.21751501  0.27695645  0.91478720     0.33700
H1894       H  0.25961746  0.36066117  0.95715204     0.44500
H1895       H  0.23479437  0.27962954  0.01765303     0.38000
H1896       H  0.16161724  0.33977952  0.97644735     0.34500
H1897       H  0.26631070  0.35712114  0.88858100     0.26300
H1898       H  0.16580662  0.38253069  0.99542385     0.32300
H1899       H  0.18030682  0.35612079  0.03469113     0.38200
H1900       H  0.26784029  0.27694808  0.90465567     0.32600
H1901       H  0.25201248  0.23193512  0.93241057     0.31500
H1902       H  0.24577624  0.23130315  0.00354796     0.33200
H1903       H  0.18466422  0.27190751  0.04783081     0.32100
H1904       H  0.29640338  0.33690228  0.93166192     0.36100
H1905       H  0.29679185  0.35612164  0.98334266     0.28900
H1906       H  0.13578844  0.29856914  0.90842160     0.33100
H1907       H  0.13922109  0.30208850  0.99929075     0.36000
H1908       H  0.22528874  0.22134308  0.93679331     0.28600
H1909       H  0.30466012  0.34228676  0.00768921     0.41400
H1910       H  0.23758654  0.40894510  0.95941162     0.31500
H1911       H  0.24407303  0.37041775  0.90175748     0.39100
H1912       H  0.19235388  0.25818366  0.02339063     0.31000
H1913       H  0.18414041  0.40506400  0.99485045     0.31000
H1914       H  0.12642610  0.31046393  0.93332953     0.31300
Zr1915     Zr  0.01066300  0.24029929  0.92820970     2.17500
O1916       O  0.05436263  0.23868151  0.91647713    -0.51100
O1917       O  0.00611160  0.28464603  0.93147935    -0.74300
O1918       O  0.01489207  0.25937660  0.88788780    -0.81000
O1919       O  0.02599582  0.21966679  0.99083129    -0.82800
O1920       O  0.98390329  0.24513519  0.86296751    -0.78400
O1921       O  0.03957415  0.24657406  0.96132419    -0.90100
O1922       O  0.96518588  0.29185232  0.92423713    -0.76000
O1923       O  0.97322635  0.24580929  0.90634496    -0.85500
O1924       O  0.98045191  0.24930677  0.95927754    -0.85200
O1925       O  0.00487686  0.20237015  0.90555649    -0.72000
O1926       O  0.00941446  0.20498235  0.95487959    -0.84100
Zr1927     Zr  0.93414484  0.18049755  0.94024049     2.26400
Zr1928     Zr  0.96651835  0.20873351  0.88384255     2.06300
Zr1929     Zr  0.97907824  0.21360880  0.98579077     2.10000
Zr1930     Zr  0.94282653  0.25448859  0.93593746     1.78800
O1931       O  0.98512783  0.18382775  0.01928137    -0.92900
O1932       O  0.91994673  0.27135949  0.90075681    -0.40700
O1933       O  0.94352625  0.21838079  0.96055186    -0.77300
O1934       O  0.93396369  0.21637937  0.91343390    -0.96000
O1935       O  0.96519562  0.17289461  0.91005714    -0.89300
O1936       O  0.97111144  0.17493166  0.96448091    -0.92200
C1937       C  0.98785882  0.29881110  0.92605126     1.01600
C1938       C  0.04342184  0.23286303  0.98021171     1.14500
C1939       C  0.00180721  0.26006472  0.86807822     1.05300
O1940       O  0.93760047  0.22306982  0.85220581    -0.94300
O1941       O  0.93854638  0.17729157  0.86831964    -0.90100
O1942       O  0.91652468  0.16409918  0.90180940    -0.83200
C1943       C  0.92183168  0.16391866  0.87860303     1.11900
O1944       O  0.04722628  0.16519158  0.93129383    -0.96300
Zr1945     Zr  0.00211863  0.16722480  0.93329948     1.88900
O1946       O  0.94125832  0.13672012  0.94928182    -0.72900
O1947       O  0.99406003  0.19001298  0.85327981    -0.52200
O1948       O  0.01635240  0.14505477  0.89654621    -0.96900
O1949       O  0.02178958  0.14499383  0.96747574    -0.54100
O1950       O  0.98015634  0.12813253  0.93553596    -0.73500
C1951       C  0.95874554  0.12163900  0.94340821     0.98900
O1952       O  0.89078012  0.16889913  0.94612434    -0.62300
O1953       O  0.97978391  0.24554348  0.01776267    -0.57100
O1954       O  0.90886455  0.19416054  0.97528500    -0.93800
O1955       O  0.93439174  0.21518123  0.00177707    -0.92200
O1956       O  0.93730975  0.28222795  0.97130473    -0.92500
O1957       O  0.89942385  0.25833373  0.94815522    -0.91300
C1958       C  0.91243653  0.20733923  0.99485358     1.17700
H1959       H  0.98461275  0.26386790  0.96864905     0.33700
H1960       H  0.91814070  0.21760598  0.90509124     0.44500
H1961       H  0.96968589  0.16148807  0.97633915     0.38000
H1962       H  0.01836052  0.20005826  0.89402219     0.34500
H1963       H  0.90458518  0.26135894  0.89955912     0.26300
H1964       H  0.99470503  0.17224692  0.85790379     0.32300
H1965       H  0.01645338  0.12733048  0.90136418     0.38200
H1966       H  0.93981035  0.29918211  0.96467720     0.32600
H1967       H  0.97195738  0.23767272  0.03239294     0.31500
H1968       H  0.97132987  0.18708185  0.03095568     0.33200
H1969       H  0.00798692  0.13789333  0.97729437     0.32100
H1970       H  0.89881201  0.25279020  0.96565309     0.36100
H1971       H  0.88135185  0.17932895  0.93426968     0.28900
H1972       H  0.05806725  0.25506790  0.90903838     0.33100
H1973       H  0.05233140  0.18170807  0.92508864     0.36000
H1974       H  0.99747245  0.24729059  0.02235585     0.28600
H1975       H  0.88927454  0.15179106  0.93959503     0.41400
H1976       H  0.92711693  0.23549941  0.86077358     0.31500
H1977       H  0.91431551  0.28793018  0.90630288     0.39100
H1978       H  0.02874261  0.15816775  0.97823530     0.31000
H1979       H  0.98447647  0.19035113  0.83761129     0.31000
H1980       H  0.05514139  0.22688031  0.90241882     0.31300
Zr1981     Zr  0.68476781  0.17909253  0.06346644     2.17500
O1982       O  0.64126933  0.18253408  0.07567461    -0.51100
O1983       O  0.69123223  0.18739693  0.10747891    -0.74300
O1984       O  0.66842336  0.13985858  0.07913278    -0.81000
O1985       O  0.68333526  0.24213291  0.03056207    -0.82800
O1986       O  0.69349915  0.10796441  0.06743740    -0.78400
O1987       O  0.65889613  0.21439222  0.05125706    -0.90100
O1988       O  0.73077799  0.17601824  0.11654689    -0.76000
O1989       O  0.71725092  0.15038404  0.07112793    -0.85500
O1990       O  0.72048841  0.20493172  0.06960837    -0.85200
O1991       O  0.68605812  0.15257463  0.02722487    -0.72000
O1992       O  0.69314074  0.20065946  0.02600402    -0.84100
Zr1993     Zr  0.76149649  0.17163463  0.00343601     2.26400
Zr1994     Zr  0.72002718  0.12461812  0.03494222     2.06300
Zr1995     Zr  0.72795621  0.22706462  0.03131700     2.10000
Zr1996     Zr  0.75285822  0.17534039  0.07727906     1.78800
O1997       O  0.73092077  0.25942098  0.99995841    -0.92900
O1998       O  0.76999503  0.13840138  0.09687562    -0.40700
O1999       O  0.75918773  0.19725951  0.03960310    -0.77300
O2000       O  0.75700479  0.14850494  0.04143403    -0.96000
O2001       O  0.72518974  0.14769196  0.99783258    -0.89300
O2002       O  0.72993312  0.20144314  0.99486210    -0.92200
C2003       C  0.70882786  0.18262428  0.12280592     1.01600
C2004       C  0.66183080  0.23450808  0.03872539     1.14500
C2005       C  0.67558894  0.11717752  0.08015080     1.05300
O2006       O  0.74789897  0.09362475  0.05249768    -0.94300
O2007       O  0.74163828  0.10439441  0.00032814    -0.90100
O2008       O  0.76937552  0.13210491  0.98465424    -0.83200
C2009       C  0.75889237  0.11088564  0.98516227     1.11900
O2010       O  0.64884664  0.18378074  0.98942854    -0.96300
Zr2011     Zr  0.69348122  0.17643225  0.98964250     1.88900
O2012       O  0.75668079  0.17359171  0.95860636    -0.72900
O2013       O  0.69174888  0.09336258  0.01866046    -0.52200
O2014       O  0.66951972  0.14528687  0.96735444    -0.96900
O2015       O  0.68533333  0.21478783  0.96711429    -0.54100
O2016       O  0.71555761  0.16784565  0.95103260    -0.73500
C2017       C  0.73829427  0.16940524  0.94405403     0.98900
O2018       O  0.80573086  0.16235489  0.00623189    -0.62300
O2019       O  0.73033898  0.26156157  0.06047533    -0.57100
O2020       O  0.78790766  0.20684358  0.99707809    -0.93800
O2021       O  0.77507886  0.23241641  0.02782336    -0.92200
O2022       O  0.76900268  0.20884681  0.10301843    -0.92500
O2023       O  0.79768486  0.18059042  0.07933064    -0.91300
C2024       C  0.79238517  0.22341497  0.01333614     1.17700
H2025       H  0.71832446  0.21645693  0.08328462     0.33700
H2026       H  0.77110190  0.13759336  0.04359917     0.44500
H2027       H  0.73367972  0.21114504  0.98030917     0.38000
H2028       H  0.67074535  0.14342262  0.02573557     0.34500
H2029       H  0.76959753  0.14204568  0.11487662     0.26300
H2030       H  0.69108164  0.09663315  0.00058906     0.32300
H2031       H  0.67996621  0.13018106  0.96785636     0.38200
H2032       H  0.76103664  0.22412127  0.09664534     0.32600
H2033       H  0.71501219  0.26035336  0.07054746     0.31500
H2034       H  0.73327993  0.27492979  0.00952582     0.33200
H2035       H  0.67686189  0.22570125  0.97924527     0.32100
H2036       H  0.80377236  0.17482952  0.06298942     0.36100
H2037       H  0.80678277  0.14611591  0.01477478     0.28900
H2038       H  0.64073935  0.17764215  0.09339222     0.33100
H2039       H  0.64473778  0.18801738  0.00682991     0.36000
H2040       H  0.74390317  0.25709187  0.07202783     0.28600
H2041       H  0.81105184  0.15891793  0.98898874     0.41400
H2042       H  0.73818719  0.07803512  0.05238137     0.31500
H2043       H  0.75713960  0.12549957  0.09449096     0.39100
H2044       H  0.67238507  0.21050346  0.95480900     0.31000
H2045       H  0.70096748  0.07752101  0.02013735     0.31000
H2046       H  0.63250779  0.16905730  0.06675280     0.31300
Zr2047     Zr  0.42878932  0.30656674  0.06496106     2.17500
O2048       O  0.38403303  0.30914005  0.05845961    -0.51100
O2049       O  0.43238234  0.35123982  0.05856980    -0.74300
O2050       O  0.40816595  0.32274781  0.10146357    -0.81000
O2051       O  0.43421119  0.27403815  0.00415265    -0.82800
O2052       O  0.42885634  0.31084710  0.13629222    -0.78400
O2053       O  0.40814316  0.29942175  0.02573163    -0.90100
O2054       O  0.47076612  0.36217459  0.07210790    -0.76000
O2055       O  0.45743888  0.31636449  0.09672589    -0.85500
O2056       O  0.46654434  0.31499134  0.04317335    -0.85200
O2057       O  0.42943400  0.27067616  0.09187292    -0.72000
O2058       O  0.44067727  0.26921296  0.04450475    -0.84100
Zr2059     Zr  0.50730301  0.25150212  0.08184539     2.26400
Zr2060     Zr  0.45949648  0.28093086  0.12330139     2.06300
Zr2061     Zr  0.47787632  0.27697059  0.02235790     2.10000
Zr2062     Zr  0.49516409  0.32447550  0.07590372     1.78800
O2063       O  0.48116495  0.25047258  0.98592615    -0.92900
O2064       O  0.50463238  0.34898534  0.11277251    -0.40700
O2065       O  0.50604228  0.28691094  0.05511345    -0.77300
O2066       O  0.49859529  0.28934917  0.10378379    -0.96000
O2067       O  0.46901036  0.24394805  0.10149545    -0.89300
O2068       O  0.47991689  0.24096872  0.04859369    -0.92200
C2069       C  0.44889759  0.36737965  0.06441917     1.01600
C2070       C  0.41241437  0.28400994  0.00815357     1.14500
C2071       C  0.41215529  0.32324611  0.12485838     1.05300
O2072       O  0.48380918  0.30308424  0.15439248    -0.94300
O2073       O  0.47793167  0.24638916  0.14632723    -0.90100
O2074       O  0.50972041  0.23250872  0.12231291    -0.83200
C2075       C  0.49640559  0.23195422  0.14193007     1.11900
O2076       O  0.39659695  0.22945072  0.06522538    -0.96300
Zr2077     Zr  0.44141168  0.23331173  0.06959039     1.88900
O2078       O  0.50644600  0.20685632  0.07736990    -0.72900
O2079       O  0.42916774  0.26771164  0.15407633    -0.52200
O2080       O  0.42511515  0.20645105  0.10201738    -0.96900
O2081       O  0.43104180  0.21155810  0.03131152    -0.54100
O2082       O  0.46585193  0.19568282  0.07477438    -0.73500
C2083       C  0.48903557  0.19071694  0.07684860     0.98900
O2084       O  0.54974698  0.25372075  0.09743369    -0.62300
O2085       O  0.48583120  0.30967149  0.99220161    -0.57100
O2086       O  0.53966138  0.24909099  0.05182856    -0.93800
O2087       O  0.52435123  0.26908599  0.01781265    -0.92200
O2088       O  0.51393892  0.34602863  0.04092852    -0.92500
O2089       O  0.53940246  0.33226683  0.08101785    -0.91300
C2090       C  0.54237611  0.25885546  0.03046644     1.17700
H2091       H  0.46474853  0.32855229  0.03151271     0.33700
H2092       H  0.51131483  0.29235046  0.11594437     0.44500
H2093       H  0.48556182  0.22676440  0.03920884     0.38000
H2094       H  0.41324997  0.26839402  0.09941417     0.34500
H2095       H  0.50518128  0.36642410  0.10697438     0.26300
H2096       H  0.42634234  0.24991063  0.15059700     0.32300
H2097       H  0.42705447  0.21613108  0.11749886     0.38200
H2098       H  0.51858237  0.33267442  0.02919204     0.32600
H2099       H  0.49905582  0.30284343  0.98140576     0.31500
H2100       H  0.48666166  0.23421331  0.99244915     0.33200
H2101       H  0.44488718  0.19974727  0.02868705     0.32100
H2102       H  0.54442095  0.32194653  0.09535965     0.36100
H2103       H  0.54863302  0.26302129  0.11323761     0.28900
H2104       H  0.37893864  0.32576216  0.06442227     0.33100
H2105       H  0.39125551  0.24547912  0.05799150     0.36000
H2106       H  0.47085278  0.30993790  0.98157260     0.28600
H2107       H  0.55401228  0.23653073  0.10239685     0.41400
H2108       H  0.49548994  0.29063861  0.16119356     0.31500
H2109       H  0.48945567  0.34803794  0.12307861     0.39100
H2110       H  0.43314391  0.22408867  0.01806101     0.31000
H2111       H  0.43823280  0.26798079  0.17006570     0.31000
H2112       H  0.37676385  0.29730778  0.07047669     0.31300
Zr2113     Zr  0.56998854  0.14643900  0.69085765     2.17500
O2114       O  0.58750242  0.10768847  0.70676444    -0.51100
O2115       O  0.61455639  0.15376574  0.69464552    -0.74300
O2116       O  0.57929461  0.12080090  0.65536734    -0.81000
O2117       O  0.52952372  0.14910176  0.74861376    -0.82800
O2118       O  0.57493893  0.14488887  0.62112501    -0.78400
O2119       O  0.55342047  0.12280087  0.72561508    -0.90100
O2120       O  0.62285832  0.19180214  0.67875493    -0.76000
O2121       O  0.57975710  0.17618833  0.66004274    -0.85500
O2122       O  0.57579024  0.18401694  0.71383242    -0.85200
O2123       O  0.53498786  0.14582286  0.66251453    -0.72000
O2124       O  0.53179388  0.15798802  0.70860398    -0.84100
Zr2125     Zr  0.51217749  0.22346270  0.67422717     2.26400
Zr2126     Zr  0.54510852  0.17696191  0.63238099     2.06300
Zr2127     Zr  0.53657498  0.19322553  0.73363972     2.10000
Zr2128     Zr  0.58463236  0.21410603  0.68191983     1.78800
O2129       O  0.50330051  0.19947424  0.76357572    -0.92900
O2130       O  0.60616369  0.23241685  0.64677640    -0.40700
O2131       O  0.54647838  0.22176730  0.70180772    -0.77300
O2132       O  0.55061567  0.21620413  0.65281295    -0.96000
O2133       O  0.50663956  0.18558842  0.65250895    -0.89300
O2134       O  0.50173604  0.19438347  0.70608919    -0.92200
C2135       C  0.62941487  0.17052616  0.68662327     1.01600
C2136       C  0.53755646  0.12695710  0.74287993     1.14500
C2137       C  0.58362718  0.12599239  0.63268427     1.05300
O2138       O  0.57285688  0.19757463  0.60341660    -0.94300
O2139       O  0.51604927  0.20043584  0.60685155    -0.90100
O2140       O  0.49640152  0.22792006  0.63223939    -0.83200
C2141       C  0.50010858  0.21765336  0.61111564     1.11900
O2142       O  0.49478130  0.11129782  0.68667891    -0.96300
Zr2143     Zr  0.49638209  0.15635896  0.68331993     1.88900
O2144       O  0.46847692  0.22109814  0.68201900    -0.72900
O2145       O  0.52631845  0.15086153  0.60055212    -0.52200
O2146       O  0.47220354  0.13808048  0.64975608    -0.96900
O2147       O  0.47607362  0.14142981  0.72083271    -0.54100
O2148       O  0.45806400  0.18017084  0.68140302    -0.73500
C2149       C  0.45278689  0.20336914  0.68219496     0.98900
O2150       O  0.51031011  0.26711250  0.66236728    -0.62300
O2151       O  0.56488602  0.19439215  0.76883530    -0.57100
O2152       O  0.51399809  0.25631231  0.70457392    -0.93800
O2153       O  0.53453270  0.24026458  0.73793128    -0.92200
O2154       O  0.60967313  0.23026585  0.71603937    -0.92500
O2155       O  0.58633108  0.25921691  0.68444641    -0.91300
C2156       C  0.52518568  0.25882036  0.72537217     1.17700
H2157       H  0.58900314  0.18216456  0.72574774     0.33700
H2158       H  0.55346387  0.22913719  0.64081527     0.44500
H2159       H  0.48733349  0.19879807  0.71592757     0.38000
H2160       H  0.53320578  0.12984443  0.65464698     0.34500
H2161       H  0.62191714  0.23883678  0.65373618     0.26300
H2162       H  0.53641444  0.15381982  0.58549117     0.32300
H2163       H  0.47714069  0.14739256  0.63473027     0.38200
H2164       H  0.60437758  0.22129255  0.73115443     0.32600
H2165       H  0.56347094  0.21153686  0.77528633     0.31500
H2166       H  0.51078607  0.19544327  0.77984825     0.33200
H2167       H  0.45958225  0.13559494  0.71520304     0.32100
H2168       H  0.56948226  0.26438626  0.68963506     0.36100
H2169       H  0.52285652  0.26897162  0.64909296     0.28900
H2170       H  0.60095783  0.11273648  0.71822610     0.33100
H2171       H  0.50951146  0.10683236  0.69673461     0.36000
H2172       H  0.55682467  0.18396489  0.78162914     0.28600
H2173       H  0.49410777  0.26951989  0.65402719     0.41400
H2174       H  0.58940418  0.19021838  0.60663246     0.31500
H2175       H  0.61123456  0.21813836  0.63640212     0.39100
H2176       H  0.47249511  0.15656106  0.73061339     0.31000
H2177       H  0.53013379  0.13357032  0.60544022     0.31000
H2178       H  0.59627377  0.09971294  0.69273972     0.31300
Zr2179     Zr  0.56706890  0.97263064  0.74714507     2.17500
O2180       O  0.57967691  0.01551165  0.73939213    -0.51100
O2181       O  0.57557825  0.97068197  0.70291932    -0.74300
O2182       O  0.60993053  0.98089324  0.75644756    -0.81000
O2183       O  0.49932952  0.99140691  0.74682734    -0.82800
O2184       O  0.62824507  0.94590363  0.77105553    -0.78400
O2185       O  0.53856704  0.00689899  0.74456322    -0.90100
O2186       O  0.57589919  0.93022762  0.69108676    -0.76000
O2187       O  0.58892147  0.93436120  0.74751554    -0.85500
O2188       O  0.54003165  0.94512644  0.72528997    -0.85200
O2189       O  0.57366246  0.96314030  0.79041588    -0.72000
O2190       O  0.52959893  0.97102727  0.77028476    -0.84100
Zr2191     Zr  0.52976978  0.89482281  0.79156512     2.26400
Zr2192     Zr  0.59410204  0.92347963  0.79038485     2.06300
Zr2193     Zr  0.50219507  0.94438521  0.74847763     2.10000
Zr2194     Zr  0.56253301  0.90647384  0.72640929     1.78800
O2195       O  0.45977162  0.94887665  0.76344420    -0.92900
O2196       O  0.60371827  0.88950372  0.71827470    -0.40700
O2197       O  0.52529204  0.90687040  0.74940345    -0.77300
O2198       O  0.56835497  0.89422712  0.76904627    -0.96000
O2199       O  0.55603608  0.92281457  0.81290471    -0.89300
O2200       O  0.50757337  0.93331221  0.79111018    -0.92200
C2201       C  0.57796037  0.95342407  0.68676578     1.01600
C2202       C  0.51506226  0.00976993  0.74559933     1.14500
C2203       C  0.62885022  0.96741368  0.76091271     1.05300
O2204       O  0.62478311  0.89079294  0.78415255    -0.94300
O2205       O  0.59220921  0.89365055  0.82459993    -0.90100
O2206       O  0.55420811  0.87511647  0.82351026    -0.83200
C2207       C  0.57582002  0.87836226  0.83281051     1.11900
O2208       O  0.54232270  0.00526240  0.81861180    -0.96300
Zr2209     Zr  0.53484418  0.96110393  0.81267877     1.88900
O2210       O  0.50473820  0.89970573  0.82844515    -0.72900
O2211       O  0.61775476  0.94345997  0.82329323    -0.52200
O2212       O  0.55911323  0.96614023  0.85048407    -0.96900
O2213       O  0.49734857  0.98518153  0.82066286    -0.54100
O2214       O  0.51117144  0.93867627  0.84345916    -0.73500
C2215       C  0.50129043  0.91712267  0.84425652     0.98900
O2216       O  0.52769418  0.84986065  0.78646182    -0.62300
O2217       O  0.48451416  0.95086626  0.70737414    -0.57100
O2218       O  0.49193926  0.87826904  0.77422144    -0.93800
O2219       O  0.48704841  0.90103394  0.73919330    -0.92200
O2220       O  0.53950632  0.89179054  0.69041734    -0.92500
O2221       O  0.55614735  0.86204892  0.72121233    -0.91300
C2222       C  0.48492031  0.88047189  0.75167693     1.17700
H2223       H  0.53566283  0.95045130  0.70850848     0.33700
H2224       H  0.57571437  0.87787911  0.76983258     0.44500
H2225       H  0.49140612  0.93224952  0.79865748     0.38000
H2226       H  0.58426929  0.97555997  0.79801860     0.34500
H2227       H  0.61556313  0.90271117  0.72305152     0.26300
H2228       H  0.60687974  0.94244808  0.83807011     0.32300
H2229       H  0.55828827  0.94981150  0.85887141     0.38200
H2230       H  0.52657012  0.90454020  0.68766931     0.32600
H2231       H  0.46633629  0.95031618  0.70999809     0.31500
H2232       H  0.45411927  0.93170535  0.76668078     0.33200
H2233       H  0.48372015  0.97286627  0.82127400     0.32100
H2234       H  0.54444708  0.85745673  0.73460552     0.36100
H2235       H  0.54498733  0.84454680  0.78318312     0.28900
H2236       H  0.59378613  0.01467738  0.72763975     0.33100
H2237       H  0.54822971  0.01116987  0.80224103     0.36000
H2238       H  0.48807713  0.96843009  0.70337268     0.28600
H2239       H  0.52378281  0.84313562  0.80308947     0.41400
H2240       H  0.63881050  0.89880954  0.77543777     0.31500
H2241       H  0.60603261  0.87643872  0.73097214     0.39100
H2242       H  0.49433113  0.99445981  0.80510583     0.31000
H2243       H  0.63149105  0.93177721  0.82685806     0.31000
H2244       H  0.58685937  0.02172290  0.75514866     0.31300
Zr2245     Zr  0.51463959  0.73490786  0.79589849     2.17500
O2246       O  0.53333180  0.77618733  0.79530520    -0.51100
O2247       O  0.55828322  0.72462679  0.79250244    -0.74300
O2248       O  0.51534301  0.75397967  0.83690367    -0.81000
O2249       O  0.48940914  0.74250851  0.72997114    -0.82800
O2250       O  0.49672512  0.72739167  0.86386398    -0.78400
O2251       O  0.50557949  0.76392877  0.76267929    -0.90100
O2252       O  0.57003146  0.68725997  0.80306012    -0.76000
O2253       O  0.52022675  0.69893406  0.82114602    -0.85500
O2254       O  0.52534117  0.70215630  0.76727489    -0.85200
O2255       O  0.47560665  0.72817493  0.81686072    -0.72000
O2256       O  0.48038612  0.72806573  0.76899491    -0.84100
Zr2257     Zr  0.45752713  0.65442302  0.78747342     2.26400
Zr2258     Zr  0.48173597  0.69133822  0.84149464     2.06300
Zr2259     Zr  0.49011803  0.69659252  0.73997996     2.10000
Zr2260     Zr  0.53146315  0.66615920  0.79338470     1.78800
O2261       O  0.46065749  0.69689187  0.70568361    -0.92900
O2262       O  0.54965087  0.64547632  0.82927729    -0.40700
O2263       O  0.49596334  0.66321660  0.76768601    -0.77300
O2264       O  0.49292831  0.65711385  0.81518182    -0.96000
O2265       O  0.44709145  0.68760237  0.81430699    -0.89300
O2266       O  0.45094103  0.68911391  0.76055326    -0.92200
C2267       C  0.56856016  0.71021143  0.80807870     1.01600
C2268       C  0.49575250  0.76307375  0.74103370     1.14500
C2269       C  0.50772975  0.74777905  0.85854570     1.05300
O2270       O  0.50800194  0.66580931  0.86796275    -0.94300
O2271       O  0.44882870  0.66262961  0.85391480    -0.90100
O2272       O  0.45043423  0.63177771  0.82556947    -0.83200
C2273       C  0.44268212  0.64102991  0.84599491     1.11900
O2274       O  0.43851213  0.76752354  0.78384207    -0.96300
Zr2275     Zr  0.44173948  0.72268462  0.78848105     1.88900
O2276       O  0.41254796  0.66017589  0.79051096    -0.72900
O2277       O  0.46271687  0.70533415  0.88008635    -0.52200
O2278       O  0.42013689  0.73995343  0.82425326    -0.96900
O2279       O  0.41998538  0.73652762  0.75125600    -0.54100
O2280       O  0.40328389  0.70118757  0.79280086    -0.73500
C2281       C  0.39741660  0.67834044  0.79344445     0.98900
O2282       O  0.43720108  0.61686417  0.77234582    -0.62300
O2283       O  0.52175789  0.70048556  0.70792026    -0.57100
O2284       O  0.47269436  0.62734991  0.75479488    -0.93800
O2285       O  0.49366822  0.65133427  0.72691954    -0.92200
O2286       O  0.55752794  0.65621322  0.75778653    -0.92500
O2287       O  0.53568047  0.62181113  0.78567061    -0.91300
C2288       C  0.48602356  0.62987151  0.73524139     1.17700
H2289       H  0.53972770  0.70578105  0.75735633     0.33700
H2290       H  0.49507142  0.64214126  0.82474179     0.58900
H2291       H  0.43767488  0.68597470  0.74906057     0.38000
H2292       H  0.47115742  0.74222996  0.82705366     0.34500
H2293       H  0.56634347  0.64014186  0.82370638     0.26300
H2294       H  0.44477578  0.70678266  0.87637277     0.32300
H2295       H  0.40340181  0.74435069  0.81807177     0.38200
H2296       H  0.54805208  0.66206963  0.74316040     0.32600
H2297       H  0.51249745  0.70590753  0.69298078     0.31500
H2298       H  0.46610631  0.68319319  0.69473225     0.33200
H2299       H  0.40501095  0.72595713  0.75011508     0.32100
H2300       H  0.52360129  0.61389150  0.79701073     0.36100
H2301       H  0.42861766  0.60973550  0.78691991     0.28900
H2302       H  0.54741186  0.77541989  0.80707992     0.33100
H2303       H  0.44694957  0.77443254  0.79863601     0.36000
H2304       H  0.53156710  0.71524821  0.71277812     0.28600
H2305       H  0.42361781  0.62271960  0.76139324     0.41400
H2306       H  0.50959980  0.67540721  0.88355005     0.31500
H2307       H  0.55291196  0.65893419  0.84135633     0.39100
H2308       H  0.43058169  0.73108566  0.73725577     0.31000
H2309       H  0.46404938  0.69110846  0.89163154     0.31000
H2310       H  0.52110467  0.78740836  0.80326815     0.31300
Zr2311     Zr  0.45682709  0.39761769  0.68671924     2.17500
O2312       O  0.46330829  0.35391622  0.67672438    -0.51100
O2313       O  0.46780206  0.40452903  0.64338705    -0.74300
O2314       O  0.41923526  0.37803353  0.67126942    -0.81000
O2315       O  0.51801969  0.40014900  0.72091209    -0.82800
O2316       O  0.38483465  0.39807391  0.68532560    -0.78400
O2317       O  0.49347540  0.37410384  0.69831075    -0.90100
O2318       O  0.45877090  0.44433844  0.63272749    -0.76000
O2319       O  0.42517919  0.42698503  0.67829951    -0.85500
O2320       O  0.47928074  0.43533718  0.67993367    -0.85200
O2321       O  0.43048565  0.39741202  0.72298059    -0.72000
O2322       O  0.47701971  0.40791180  0.72452476    -0.84100
Zr2323     Zr  0.44279960  0.47576487  0.74370219     2.26400
Zr2324     Zr  0.39965186  0.42838104  0.71465827     2.06300
Zr2325     Zr  0.50083125  0.44412797  0.71798916     2.10000
Zr2326     Zr  0.44666334  0.46459732  0.67102143     1.78800
O2327       O  0.53283036  0.44926162  0.74951443    -0.92900
O2328       O  0.41049799  0.46900746  0.64412736    -0.40700
O2329       O  0.46870180  0.47296369  0.70819890    -0.77300
O2330       O  0.41952831  0.46741466  0.70654115    -0.96000
O2331       O  0.42129247  0.43826688  0.75197382    -0.89300
O2332       O  0.47463789  0.44661276  0.75398250    -0.92200
C2333       C  0.46656755  0.42245383  0.62775868     1.01600
C2334       C  0.51227188  0.37817994  0.71232831     1.14500
C2335       C  0.39576874  0.38179055  0.67197968     1.05300
O2336       O  0.36388384  0.44635762  0.69370719    -0.94300
O2337       O  0.37562762  0.45299127  0.74352425    -0.90100
O2338       O  0.40019862  0.48582758  0.75318224    -0.83200
C2339       C  0.37992322  0.47363834  0.75441806     1.11900
O2340       O  0.46207085  0.36500302  0.76737202    -0.96300
Zr2341     Zr  0.45231986  0.40860501  0.76062593     1.88900
O2342       O  0.44816139  0.47270036  0.78794143    -0.72900
O2343       O  0.37488721  0.39809190  0.73730055    -0.52200
O2344       O  0.41819725  0.38618599  0.77993889    -0.96900
O2345       O  0.48940150  0.39957429  0.78499497    -0.54100
O2346       O  0.44466965  0.43196765  0.79806362    -0.73500
C2347       C  0.44593020  0.45500391  0.80351067     0.98900
O2348       O  0.43684273  0.51944058  0.75431851    -0.62300
O2349       O  0.53367485  0.44745753  0.68707427    -0.57100
O2350       O  0.47287211  0.50822904  0.73726087    -0.93800
O2351       O  0.50746350  0.49058546  0.72054572    -0.92200
O2352       O  0.47793680  0.49233597  0.65398410    -0.92500
O2353       O  0.43457206  0.50801919  0.66750796    -0.91300
C2354       C  0.49463176  0.50973344  0.72793566     1.17700
H2355       H  0.49167323  0.43443063  0.66692829     0.33700
H2356       H  0.40717813  0.48019805  0.70382303     0.44500
H2357       H  0.48430461  0.45149076  0.76823291     0.38000
H2358       H  0.42281890  0.38129447  0.72489066     0.34500
H2359       H  0.41718768  0.47525212  0.62820190     0.26300
H2360       H  0.37427655  0.40441330  0.75455241     0.32300
H2361       H  0.42368658  0.38331448  0.79724589     0.38200
H2362       H  0.49356160  0.48730142  0.66225655     0.32600
H2363       H  0.53414257  0.46530677  0.68273043     0.31500
H2364       H  0.54853541  0.44461241  0.74119837     0.33200
H2365       H  0.48750151  0.40917620  0.80055191     0.32100
H2366       H  0.43689206  0.51486362  0.68440939     0.36100
H2367       H  0.42449213  0.52589863  0.74232654     0.28900
H2368       H  0.45778728  0.35188529  0.65931262     0.33100
H2369       H  0.46379256  0.35799028  0.75048656     0.36000
H2370       H  0.54929644  0.44452645  0.69628758     0.28600
H2371       H  0.42830485  0.51964095  0.77059761     0.41400
H2372       H  0.37082916  0.45425958  0.67866732     0.31500
H2373       H  0.40507911  0.45184963  0.64042683     0.39100
H2374       H  0.50309203  0.40793283  0.77605754     0.31000
H2375       H  0.35778995  0.40041368  0.73094894     0.31000
H2376       H  0.45098339  0.34469498  0.68675920     0.31300
Zr2377     Zr  0.34447876  0.51184076  0.92634582     2.17500
O2378       O  0.34077522  0.49086089  0.88627400    -0.51100
O2379       O  0.35763751  0.55051345  0.90639425    -0.74300
O2380       O  0.30488889  0.51741222  0.90608096    -0.81000
O2381       O  0.41294158  0.49160912  0.93150622    -0.82800
O2382       O  0.27465258  0.51876212  0.93571167    -0.78400
O2383       O  0.38044932  0.49545188  0.90476529    -0.90100
O2384       O  0.36874268  0.57739843  0.93690566    -0.76000
O2385       O  0.32386009  0.54119686  0.95258439    -0.85500
O2386       O  0.37733170  0.52915034  0.95029848    -0.85200
O2387       O  0.31413645  0.48924533  0.95056167    -0.72000
O2388       O  0.36286875  0.47750105  0.94783693    -0.84100
Zr2389     Zr  0.34985226  0.50322715  0.02259613     2.26400
Zr2390     Zr  0.29508291  0.51868164  0.97871999     2.06300
Zr2391     Zr  0.39559956  0.49520200  0.97228350     2.10000
Zr2392     Zr  0.35677257  0.55879733  0.97594716     1.78800
O2393       O  0.42012553  0.45798390  0.96476889    -0.92900
O2394       O  0.32251274  0.58696514  0.96707166    -0.40700
O2395       O  0.37843126  0.52654665  0.99841053    -0.77300
O2396       O  0.32853381  0.53682444  0.00215101    -0.96000
O2397       O  0.31585698  0.48605857  0.99970563    -0.89300
O2398       O  0.36636086  0.47240342  0.99588273    -0.92200
C2399       C  0.36700652  0.57104071  0.91410325     1.01600
C2400       C  0.40320113  0.49079253  0.90994952     1.14500
C2401       C  0.28208867  0.51836198  0.91253972     1.05300
O2402       O  0.27483801  0.55892255  0.98213181    -0.94300
O2403       O  0.28365224  0.51461086  0.02559385    -0.90100
O2404       O  0.31807676  0.51468563  0.05038635    -0.83200
C2405       C  0.29468233  0.51431774  0.04750280     1.11900
O2406       O  0.33348705  0.42861947  0.93677715    -0.96300
Zr2407     Zr  0.33301577  0.45604181  0.97278093     1.88900
O2408       O  0.33161608  0.46854907  0.04410313    -0.72900
O2409       O  0.25437641  0.49921272  0.98122209    -0.52200
O2410       O  0.29273201  0.43783435  0.96324859    -0.96900
O2411       O  0.35745866  0.41920857  0.98255986    -0.54100
O2412       O  0.31815762  0.44297839  0.01321024    -0.73500
C2413       C  0.31962824  0.44975806  0.03601675     0.98900
O2414       O  0.36628793  0.53137492  0.05391816    -0.62300
O2415       O  0.43240709  0.52064783  0.97847302    -0.57100
O2416       O  0.38586828  0.48323900  0.04128652    -0.93800
O2417       O  0.41426859  0.47954434  0.01027637    -0.92200
O2418       O  0.39157710  0.58632887  0.98436953    -0.92500
O2419       O  0.35824612  0.58749276  0.01092450    -0.91300
C2420       C  0.40675946  0.47581925  0.03254171     1.17700
H2421       H  0.39014494  0.53652813  0.94014005     0.33700
H2422       H  0.32170152  0.54815666  0.01436474     0.44500
H2423       H  0.37352934  0.45842968  0.00454943     0.38000
H2424       H  0.30190087  0.48173917  0.93975960     0.34500
H2425       H  0.31398589  0.58939267  0.98314788     0.26300
H2426       H  0.25592858  0.48674053  0.99462977     0.32300
H2427       H  0.28110017  0.44583287  0.97501596     0.38200
H2428       H  0.40526753  0.57992423  0.97395353     0.32600
H2429       H  0.44282458  0.51754448  0.96366866     0.31500
H2430       H  0.40930741  0.44415146  0.97018060     0.33200
H2431       H  0.36953518  0.41761484  0.96881566     0.32100
H2432       H  0.34171299  0.58667840  0.01886836     0.36100
H2433       H  0.38327667  0.53538614  0.04815157     0.28900
H2434       H  0.33525945  0.50350150  0.87411419     0.33100
H2435       H  0.33943496  0.43912510  0.92293308     0.36000
H2436       H  0.42652459  0.53792279  0.97646966     0.28600
H2437       H  0.35689415  0.54700218  0.05144618     0.41400
H2438       H  0.25877046  0.55677655  0.97346642     0.31500
H2439       H  0.33051888  0.60311689  0.96362787     0.39100
H2440       H  0.34589301  0.40511287  0.98031852     0.31000
H2441       H  0.24342440  0.51221359  0.98822418     0.31000
H2442       H  0.32671029  0.47915494  0.88792116     0.31300
Zr2443     Zr  0.25960341  0.58950481  0.77604053     2.17500
O2444       O  0.24060441  0.60575676  0.81377741    -0.51100
O2445       O  0.29417686  0.56580404  0.79233952    -0.74300
O2446       O  0.24557618  0.55732300  0.80198159    -0.81000
O2447       O  0.27988965  0.65577788  0.76715544    -0.82800
O2448       O  0.24061923  0.52473165  0.77541580    -0.78400
O2449       O  0.28175971  0.62379309  0.79466470    -0.90100
O2450       O  0.31511059  0.55288850  0.75800210    -0.76000
O2451       O  0.27194462  0.55646140  0.74919554    -0.85500
O2452       O  0.28946059  0.60626102  0.74832781    -0.85200
O2453       O  0.22245459  0.57331143  0.75713615    -0.72000
O2454       O  0.23704611  0.62177881  0.75612783    -0.84100
Zr2455     Zr  0.24228467  0.59239535  0.68089250     2.26400
Zr2456     Zr  0.23566167  0.54037484  0.73005052     2.06300
Zr2457     Zr  0.26715017  0.63824915  0.72795315     2.10000
Zr2458     Zr  0.30086051  0.57381347  0.72108265     1.78800
O2459       O  0.25235560  0.68063717  0.73279250    -0.92900
O2460       O  0.31417948  0.53432566  0.70337972    -0.40700
O2461       O  0.27987050  0.60665819  0.69964372    -0.77300
O2462       O  0.26441741  0.55920233  0.70121190    -0.96000
O2463       O  0.21341915  0.57288045  0.70852770    -0.89300
O2464       O  0.22995902  0.62449141  0.70838710    -0.92200
C2465       C  0.31071279  0.55276253  0.78136282     1.01600
C2466       C  0.28645050  0.64604620  0.78779803     1.14500
C2467       C  0.24304952  0.53432009  0.79780791     1.05300
O2468       O  0.25022212  0.49760755  0.72981913    -0.94300
O2469       O  0.23368199  0.52300893  0.68589870    -0.90100
O2470       O  0.23369962  0.55503657  0.65804910    -0.83200
C2471       C  0.23312672  0.53189441  0.66326915     1.11900
O2472       O  0.17508210  0.60586024  0.77281654    -0.96300
Zr2473     Zr  0.20086405  0.60562950  0.73556545     1.88900
O2474       O  0.20259785  0.60715285  0.66520267    -0.72900
O2475       O  0.19327368  0.52509315  0.73323869    -0.52200
O2476       O  0.16304980  0.58113967  0.73115009    -0.96900
O2477       O  0.18701021  0.64627670  0.74979287    -0.54100
O2478       O  0.18095403  0.62160258  0.69843415    -0.73500
C2479       C  0.18444730  0.61898042  0.67507088     0.98900
O2480       O  0.26181819  0.58553597  0.64060276    -0.62300
O2481       O  0.31031753  0.64887851  0.71961958    -0.57100
O2482       O  0.25360722  0.63124256  0.66050263    -0.93800
O2483       O  0.26621338  0.65975046  0.68903684    -0.92200
O2484       O  0.34126872  0.59156927  0.73078437    -0.92500
O2485       O  0.32672551  0.57881364  0.68432533    -0.91300
C2486       C  0.26113262  0.65292118  0.66693624     1.17700
H2487       H  0.30417841  0.61224447  0.75647321     0.33700
H2488       H  0.27046514  0.54746618  0.68903752     0.44500
H2489       H  0.22281697  0.63857975  0.69978713     0.38000
H2490       H  0.21155346  0.56637954  0.76962477     0.34500
H2491       H  0.33217055  0.53335309  0.70701898     0.26300
H2492       H  0.19132058  0.51386381  0.71881880     0.32300
H2493       H  0.15651444  0.58478380  0.71435905     0.38200
H2494       H  0.35279789  0.57722713  0.73058078     0.32600
H2495       H  0.31299103  0.64474305  0.70190341     0.31500
H2496       H  0.23580030  0.67888092  0.74054697     0.33200
H2497       H  0.16890220  0.64654339  0.74665730     0.32100
H2498       H  0.31562627  0.58611184  0.67162719     0.36100
H2499       H  0.25188241  0.59518164  0.62851476     0.28900
H2500       H  0.24954238  0.59773885  0.82770125     0.33100
H2501       H  0.18184263  0.59287371  0.78389668     0.36000
H2502       H  0.31081379  0.66721485  0.72024145     0.28600
H2503       H  0.27801700  0.59419232  0.64146244     0.41400
H2504       H  0.26761810  0.49865391  0.73568513     0.31500
H2505       H  0.30661691  0.52157417  0.71420426     0.39100
H2506       H  0.19390122  0.65806114  0.73752887     0.31000
H2507       H  0.19349669  0.51391026  0.74780391     0.31000
H2508       H  0.22367116  0.59862138  0.81421325     0.31300
Zr2509     Zr  0.16033668  0.51251770  0.52348187     2.17500
O2510       O  0.14583804  0.48725625  0.55804730    -0.51100
O2511       O  0.17448734  0.54872608  0.54525787    -0.74300
O2512       O  0.19439986  0.50334537  0.54994493    -0.81000
O2513       O  0.09437833  0.53216010  0.50989106    -0.82800
O2514       O  0.22855052  0.49960891  0.52510891    -0.78400
O2515       O  0.12247939  0.52943197  0.54130261    -0.90100
O2516       O  0.19020135  0.57352462  0.51494381    -0.76000
O2517       O  0.19447286  0.52970631  0.50092904    -0.85500
O2518       O  0.14331806  0.54296520  0.49655547    -0.85200
O2519       O  0.18162462  0.47891520  0.50301898    -0.72000
O2520       O  0.13154191  0.48906406  0.49945762    -0.84100
Zr2521     Zr  0.16786533  0.50262849  0.42776827     2.26400
Zr2522     Zr  0.21540526  0.49686823  0.47964089     2.06300
Zr2523     Zr  0.11512202  0.51968350  0.47187396     2.10000
Zr2524     Zr  0.17699100  0.55955645  0.47398760     1.78800
O2525       O  0.07852801  0.49329875  0.47413201    -0.92900
O2526       O  0.21722025  0.57848713  0.46583602    -0.40700
O2527       O  0.14841493  0.53732308  0.44797939    -0.77300
O2528       O  0.19683739  0.52655783  0.45187551    -0.96000
O2529       O  0.18697544  0.47303428  0.45458952    -0.89300
O2530       O  0.13440666  0.48582930  0.45081682    -0.92200
C2531       C  0.18684189  0.56745160  0.53775221     1.01600
C2532       C  0.10120476  0.53541201  0.53244162     1.14500
C2533       C  0.21770884  0.50114886  0.54680198     1.05300
O2534       O  0.25557128  0.51738100  0.48239752    -0.94300
O2535       O  0.23641745  0.49628909  0.43696758    -0.90100
O2536       O  0.20666183  0.49620888  0.40690149    -0.83200
C2537       C  0.22935047  0.49593975  0.41369732     1.11900
O2538       O  0.13924065  0.43400216  0.51442194    -0.96300
Zr2539     Zr  0.15288584  0.45642323  0.47765331     1.88900
O2540       O  0.15544264  0.46369199  0.40821235    -0.72900
O2541       O  0.23546732  0.45666215  0.48401364    -0.52200
O2542       O  0.17877973  0.42060541  0.48703812    -0.96900
O2543       O  0.11296787  0.43711775  0.46858313    -0.54100
O2544       O  0.15088608  0.43463759  0.43838889    -0.73500
C2545       C  0.15014732  0.44173794  0.41573955     0.98900
O2546       O  0.17828284  0.52287767  0.38862382    -0.62300
O2547       O  0.09073574  0.55685728  0.46331483    -0.57100
O2548       O  0.13149230  0.51384765  0.40467295    -0.93800
O2549       O  0.09888103  0.52120557  0.43051215    -0.92200
O2550       O  0.15053668  0.59581346  0.48009164    -0.92500
O2551       O  0.17685342  0.58849348  0.43925851    -0.91300
C2552       C  0.10875924  0.51875326  0.40915924     1.17700
H2553       H  0.13535389  0.55641096  0.50531133     0.33700
H2554       H  0.20905552  0.53390474  0.44124981     0.44500
H2555       H  0.12232877  0.47783501  0.44019615     0.38000
H2556       H  0.18837546  0.46752782  0.51545195     0.34500
H2557       H  0.21615169  0.59519140  0.47343656     0.26300
H2558       H  0.25207367  0.45895636  0.47652743     0.32300
H2559       H  0.19576083  0.42575890  0.48238430     0.38200
H2560       H  0.15148048  0.59960171  0.49804591     0.32600
H2561       H  0.07421795  0.55367000  0.47072900     0.31500
H2562       H  0.06474205  0.50396580  0.46826928     0.33200
H2563       H  0.10146625  0.44364513  0.48131317     0.32100
H2564       H  0.17333845  0.57809358  0.42453023     0.36100
H2565       H  0.16960324  0.51328794  0.37554265     0.28900
H2566       H  0.14945831  0.49723682  0.57304852     0.33100
H2567       H  0.14914552  0.44107621  0.52816667     0.36000
H2568       H  0.09815939  0.56991469  0.47390119     0.28600
H2569       H  0.16977165  0.53915336  0.38905760     0.41400
H2570       H  0.25450335  0.53137122  0.47053945     0.31500
H2571       H  0.22891371  0.56930956  0.47663105     0.39100
H2572       H  0.11511213  0.41936147  0.47278431     0.31000
H2573       H  0.23871517  0.45501234  0.50202926     0.31000
H2574       H  0.15752109  0.47310438  0.55896696     0.31300
Zr2575     Zr  0.24856401  0.42272602  0.27711805     2.17500
O2576       O  0.26075061  0.40825385  0.31833887    -0.51100
O2577       O  0.21305160  0.44903382  0.28804678    -0.74300
O2578       O  0.26125170  0.45550351  0.30348860    -0.81000
O2579       O  0.23332929  0.35493661  0.26720091    -0.82800
O2580       O  0.27179665  0.48720871  0.27745776    -0.78400
O2581       O  0.22713336  0.38690413  0.29424233    -0.90100
O2582       O  0.19486033  0.45909493  0.25131881    -0.76000
O2583       O  0.23897105  0.45466790  0.24807732    -0.85500
O2584       O  0.22273039  0.40360488  0.24682929    -0.85200
O2585       O  0.28763349  0.43858022  0.26170629    -0.72000
O2586       O  0.27353520  0.39044152  0.25974049    -0.84100
Zr2587     Zr  0.27606947  0.41899647  0.18400518     2.26400
Zr2588     Zr  0.27708612  0.47101361  0.23252869     2.06300
Zr2589     Zr  0.24792961  0.37206180  0.22840664     2.10000
Zr2590     Zr  0.21306537  0.43532021  0.21818781     1.78800
O2591       O  0.26583981  0.33144137  0.23729519    -0.92900
O2592       O  0.19833972  0.47283043  0.19767031    -0.40700
O2593       O  0.23727235  0.40341483  0.19895715    -0.77300
O2594       O  0.25085393  0.45111045  0.20201909    -0.96000
O2595       O  0.30203099  0.43866785  0.21424340    -0.89300
O2596       O  0.28644833  0.38681171  0.21235751    -0.92200
C2597       C  0.19764551  0.46149885  0.27476330     1.01600
C2598       C  0.22499351  0.36416303  0.28744810     1.14500
C2599       C  0.26699197  0.47801725  0.29957607     1.05300
O2600       O  0.26455861  0.51440128  0.23190069    -0.94300
O2601       O  0.27991938  0.48871986  0.18817397    -0.90100
O2602       O  0.28298909  0.45656581  0.16078897    -0.83200
C2603       C  0.28186279  0.47976945  0.16556835     1.11900
O2604       O  0.32851340  0.40157626  0.28464653    -0.96300
Zr2605     Zr  0.31147602  0.40616081  0.24302125     1.88900
O2606       O  0.31784482  0.40676968  0.17301742    -0.72900
O2607       O  0.31950851  0.48602456  0.23656674    -0.52200
O2608       O  0.35018219  0.42904020  0.24749675    -0.96900
O2609       O  0.32431719  0.36378142  0.25245403    -0.54100
O2610       O  0.33749895  0.39513677  0.20847189    -0.73500
C2611       C  0.33609344  0.39735203  0.18493847     0.98900
O2612       O  0.26437121  0.42556768  0.14072244    -0.62300
O2613       O  0.20713428  0.35618428  0.21702792    -0.57100
O2614       O  0.26706052  0.38077541  0.16181410    -0.93800
O2615       O  0.25152353  0.35176454  0.18820095    -0.92200
O2616       O  0.17398274  0.41402443  0.22623906    -0.92500
O2617       O  0.19186315  0.42893624  0.17877400    -0.91300
C2618       C  0.25859945  0.35911813  0.16670401     1.17700
H2619       H  0.20762897  0.39700152  0.25384923     0.33700
H2620       H  0.24513620  0.46244719  0.18937382     0.44500
H2621       H  0.29514743  0.37329502  0.20434265     0.38000
H2622       H  0.29754020  0.44530447  0.27504989     0.34500
H2623       H  0.18081858  0.47450327  0.20292406     0.26300
H2624       H  0.32849947  0.47251706  0.24517535     0.32300
H2625       H  0.36325073  0.41611180  0.24807998     0.38200
H2626       H  0.16100046  0.42607658  0.22135439     0.32600
H2627       H  0.19819880  0.35390291  0.23290628     0.31500
H2628       H  0.27297124  0.32548193  0.22146214     0.33200
H2629       H  0.33975102  0.36106435  0.24286402     0.32100
H2630       H  0.19505605  0.41136822  0.17442204     0.36100
H2631       H  0.27605650  0.41550390  0.13070893     0.28900
H2632       H  0.25041881  0.41767456  0.33027957     0.33100
H2633       H  0.31411060  0.39683279  0.29502814     0.36000
H2634       H  0.19866763  0.37041738  0.20903257     0.28600
H2635       H  0.24799791  0.41748515  0.13862878     0.41400
H2636       H  0.24727460  0.51411698  0.22568816     0.31500
H2637       H  0.20705051  0.48653741  0.20627125     0.39100
H2638       H  0.31183778  0.35310117  0.24422979     0.31000
H2639       H  0.32615131  0.48584231  0.21943607     0.31000
H2640       H  0.27788900  0.41435326  0.32097722     0.31300
Zr2641     Zr  0.94601926  0.10684696  0.31099132     2.17500
O2642       O  0.95826678  0.14822353  0.32504747    -0.51100
O2643       O  0.95457613  0.10258054  0.35525374    -0.74300
O2644       O  0.91151185  0.13440493  0.31780460    -0.81000
O2645       O  0.00597973  0.09967608  0.27484462    -0.82800
O2646       O  0.87572002  0.11748883  0.30358704    -0.78400
O2647       O  0.98246325  0.12816586  0.29542230    -0.90100
O2648       O  0.94571757  0.06355068  0.36824749    -0.76000
O2649       O  0.91286343  0.07995653  0.32199183    -0.85500
O2650       O  0.96713283  0.06880814  0.32009480    -0.85200
O2651       O  0.91905409  0.10583156  0.27495531    -0.72000
O2652       O  0.96532564  0.09269588  0.27417323    -0.84100
Zr2653     Zr  0.92779270  0.02564774  0.26017367     2.26400
Zr2654     Zr  0.88665864  0.07712310  0.28583091     2.06300
Zr2655     Zr  0.98791663  0.05628043  0.28243483     2.10000
Zr2656     Zr  0.93336575  0.04177439  0.33122058     1.78800
O2657       O  0.01797737  0.04841318  0.24962121    -0.92900
O2658       O  0.89855443  0.03958326  0.35997560    -0.40700
O2659       O  0.95483421  0.02951100  0.29478189    -0.77300
O2660       O  0.90515569  0.03789357  0.29676227    -0.96000
O2661       O  0.90853467  0.06394383  0.24958385    -0.89300
O2662       O  0.96073755  0.05245524  0.24747351    -0.92200
C2663       C  0.95324438  0.08569468  0.37194820     1.01600
C2664       C  0.00083341  0.12253919  0.28144166     1.14500
C2665       C  0.88815324  0.13478475  0.31418552     1.05300
O2666       O  0.85707879  0.05693553  0.31337712    -0.94300
O2667       O  0.86807143  0.05620736  0.24984408    -0.90100
O2668       O  0.88386335  0.01838935  0.25614298    -0.83200
C2669       C  0.86956264  0.03307461  0.24449116     1.11900
O2670       O  0.95533013  0.13324062  0.23140855    -0.96300
Zr2671     Zr  0.94059543  0.09112771  0.23833975     1.88900
O2672       O  0.93275709  0.02569398  0.21557691    -0.72900
O2673       O  0.84836669  0.09466273  0.26901081    -0.52200
O2674       O  0.90833303  0.11430648  0.21674024    -0.96900
O2675       O  0.97774291  0.09437862  0.21270026    -0.54100
O2676       O  0.93208393  0.06579771  0.20248734    -0.73500
C2677       C  0.93242494  0.04239138  0.19871101     0.98900
O2678       O  0.91786804  0.98197588  0.25323849    -0.62300
O2679       O  0.02232517  0.05417359  0.31167477    -0.57100
O2680       O  0.95652754  0.99224996  0.26804516    -0.93800
O2681       O  0.99285136  0.00926464  0.28144864    -0.92200
O2682       O  0.96442150  0.01496091  0.35021972    -0.92500
O2683       O  0.92144314  0.99845791  0.33632610    -0.91300
C2684       C  0.97884357  0.99025698  0.27587041     1.17700
H2685       H  0.97947235  0.07037065  0.33316433     0.33700
H2686       H  0.89250790  0.02583537  0.30085758     0.44500
H2687       H  0.96992546  0.04603679  0.23355518     0.38000
H2688       H  0.91243166  0.12205113  0.27138695     0.34500
H2689       H  0.89424113  0.05707662  0.36360607     0.26300
H2690       H  0.83783436  0.09906430  0.28340794     0.32300
H2691       H  0.89423754  0.11487046  0.22851727     0.38200
H2692       H  0.97909444  0.01629315  0.33923468     0.32600
H2693       H  0.02828323  0.03682409  0.31056049     0.31500
H2694       H  0.03423676  0.04798915  0.25814913     0.33200
H2695       H  0.97760343  0.07962204  0.20172980     0.32100
H2696       H  0.91854322  0.99228264  0.31925030     0.36100
H2697       H  0.90631977  0.97731259  0.26677561     0.28900
H2698       H  0.94977786  0.15087719  0.34113714     0.33100
H2699       H  0.95442409  0.14123064  0.24793273     0.36000
H2700       H  0.03565155  0.06411903  0.30386199     0.28600
H2701       H  0.90774623  0.98143371  0.23791336     0.41400
H2702       H  0.85443745  0.06903346  0.32694949     0.31500
H2703       H  0.88451011  0.03338608  0.34988117     0.39100
H2704       H  0.99166081  0.09127209  0.22429069     0.31000
H2705       H  0.85316288  0.11069515  0.26141575     0.31000
H2706       H  0.95035695  0.16018371  0.31351231     0.31300
Zr2707     Zr  0.01576142  0.76538478  0.21313757     2.17500
O2708       O  0.03499380  0.72435009  0.21517049    -0.51100
O2709       O  0.05888419  0.77474408  0.22268743    -0.74300
O2710       O  0.02399827  0.74741448  0.17254065    -0.81000
O2711       O  0.98068339  0.75491416  0.27441250    -0.82800
O2712       O  0.00903501  0.77397910  0.14347095    -0.78400
O2713       O  0.00362422  0.73539737  0.24464461    -0.90100
O2714       O  0.06457896  0.81479541  0.22501097    -0.76000
O2715       O  0.02111311  0.80198028  0.18854332    -0.85500
O2716       O  0.01964177  0.79882228  0.24278030    -0.85200
O2717       O  0.97925438  0.76862412  0.18687429    -0.72000
O2718       O  0.97825348  0.76976885  0.23552644    -0.84100
Zr2719     Zr  0.95018822  0.83996904  0.21342094     2.26400
Zr2720     Zr  0.98490513  0.80620785  0.16325170     2.06300
Zr2721     Zr  0.98095047  0.80149521  0.26547284     2.10000
Zr2722     Zr  0.02519248  0.83535824  0.21744130     1.78800
O2723       O  0.94882542  0.80175991  0.29729039    -0.92900
O2724       O  0.04869516  0.85457581  0.18397035    -0.40700
O2725       O  0.98640998  0.83465204  0.23768093    -0.77300
O2726       O  0.98903479  0.84100833  0.19075587    -0.96000
O2727       O  0.94722114  0.80573371  0.18599441    -0.89300
O2728       O  0.94397830  0.80497121  0.24016976    -0.92200
C2729       C  0.06844456  0.79441582  0.21388552     1.01600
C2730       C  0.99011988  0.73494970  0.26423795     1.14500
C2731       C  0.02022703  0.75414859  0.15010812     1.05300
O2732       O  0.00764622  0.83748667  0.13991556    -0.94300
O2733       O  0.94890876  0.82828714  0.14722585    -0.90100
O2734       O  0.94568144  0.86042552  0.17371186    -0.83200
C2735       C  0.94002262  0.84940076  0.15351453     1.11900
O2736       O  0.94794973  0.72636818  0.21950540    -0.96300
Zr2737     Zr  0.94206726  0.77053134  0.21169732     1.88900
O2738       O  0.90654292  0.82851458  0.20770173    -0.72900
O2739       O  0.96959306  0.79353877  0.12239953    -0.52200
O2740       O  0.92267329  0.74258235  0.18205368    -0.96900
O2741       O  0.91548891  0.76147438  0.24712869    -0.54100
O2742       O  0.90451565  0.78810623  0.19611915    -0.73500
C2743       C  0.89521499  0.80967695  0.19847586     0.98900
O2744       O  0.92408796  0.87602312  0.22185337    -0.62300
O2745       O  0.01045698  0.80020160  0.29972327    -0.57100
O2746       O  0.96042120  0.86932338  0.24639465    -0.93800
O2747       O  0.98024286  0.84758166  0.27687493    -0.92200
O2748       O  0.03611220  0.85519620  0.25655795    -0.92500
O2749       O  0.03102535  0.87998779  0.22111945    -0.91300
C2750       C  0.97215034  0.86835328  0.26715082     1.17700
H2751       H  0.03302416  0.79630301  0.25442165     0.33700
H2752       H  0.99089891  0.85644036  0.18159383     0.44500
H2753       H  0.92919318  0.80690786  0.24994043     0.38000
H2754       H  0.97760619  0.75439956  0.17598021     0.34500
H2755       H  0.06621361  0.84999509  0.18705328     0.26300
H2756       H  0.98376635  0.79458871  0.11074023     0.32300
H2757       H  0.90750723  0.73652262  0.19049274     0.38200
H2758       H  0.04962382  0.84486894  0.26350791     0.32600
H2759       H  0.01709644  0.81729957  0.30073575     0.31500
H2760       H  0.95537489  0.79108263  0.31073498     0.33200
H2761       H  0.92703591  0.75575052  0.26024374     0.32100
H2762       H  0.01428714  0.88708597  0.21852905     0.36100
H2763       H  0.91392578  0.87836613  0.20670278     0.28900
H2764       H  0.05070535  0.72564715  0.20573735     0.33100
H2765       H  0.96206539  0.72149631  0.20878208     0.36000
H2766       H  0.00016227  0.79837897  0.31482589     0.28600
H2767       H  0.91206889  0.87038276  0.23456172     0.41400
H2768       H  0.00086692  0.83654788  0.12286129     0.31500
H2769       H  0.04400542  0.84534421  0.16884548     0.39100
H2770       H  0.90615369  0.74642391  0.24226676     0.31000
H2771       H  0.96570136  0.77562873  0.12372591     0.31000
H2772       H  0.02432170  0.71322495  0.20511056     0.31300
Zr2773     Zr  0.06881760  0.52886719  0.23577587     2.17500
O2774       O  0.08224152  0.48573598  0.23264831    -0.51100
O2775       O  0.07327891  0.52482112  0.27985387    -0.74300
O2776       O  0.11349685  0.52475210  0.23614953    -0.81000
O2777       O  0.00207473  0.50872977  0.22843165    -0.82800
O2778       O  0.12871917  0.56364525  0.23244250    -0.78400
O2779       O  0.04121455  0.49378448  0.23416046    -0.90100
O2780       O  0.07116702  0.56371142  0.29621822    -0.76000
O2781       O  0.08819411  0.56763658  0.24331189    -0.85500
O2782       O  0.03859496  0.55303727  0.25787268    -0.85200
O2783       O  0.08080663  0.54355212  0.19542734    -0.72000
O2784       O  0.03408107  0.53229418  0.20898916    -0.84100
Zr2785     Zr  0.03377599  0.61049683  0.19721688     2.26400
Zr2786     Zr  0.09929683  0.58331114  0.20370498     2.06300
Zr2787     Zr  0.00353927  0.55588564  0.23077664     2.10000
Zr2788     Zr  0.05919051  0.59232260  0.26420669     1.78800
O2789       O  0.96316447  0.55491872  0.21040259    -0.92900
O2790       O  0.09835785  0.60745235  0.28125295    -0.40700
O2791       O  0.02535000  0.59340052  0.23676300    -0.77300
O2792       O  0.06968061  0.60968455  0.22421752    -0.96000
O2793       O  0.06418954  0.58639261  0.17655814    -0.89300
O2794       O  0.01329695  0.57175186  0.19029620    -0.92200
C2795       C  0.07414241  0.54024925  0.29778065     1.01600
C2796       C  0.01804783  0.49055883  0.23024969     1.14500
C2797       C  0.13004907  0.54116915  0.24032062     1.05300
O2798       O  0.13252261  0.61282121  0.21197180    -0.94300
O2799       O  0.10198676  0.61913225  0.17665266    -0.90100
O2800       O  0.06315519  0.63563695  0.17505881    -0.83200
C2801       C  0.08608489  0.63515261  0.16920089     1.11900
O2802       O  0.05826775  0.50823984  0.15218924    -0.96300
Zr2803     Zr  0.04464478  0.54782339  0.16926879     1.88900
O2804       O  0.01274774  0.60862060  0.15738977    -0.72900
O2805       O  0.12677861  0.56511333  0.17282789    -0.52200
O2806       O  0.07213987  0.55218012  0.13365931    -0.96900
O2807       O  0.01144384  0.51871107  0.15970936    -0.54100
O2808       O  0.02187730  0.57173183  0.13906112    -0.73500
C2809       C  0.01151576  0.59305193  0.13944057     0.98900
O2810       O  0.02292841  0.65449457  0.19858021    -0.62300
O2811       O  0.98052950  0.54161363  0.26694017    -0.57100
O2812       O  0.99834815  0.62758492  0.21896765    -0.93800
O2813       O  0.98633724  0.59737345  0.24592980    -0.92200
O2814       O  0.03018484  0.60120449  0.29771424    -0.92500
O2815       O  0.05305574  0.63617448  0.27362046    -0.91300
C2816       C  0.98666513  0.62044779  0.23836582     1.17700
H2817       H  0.03288769  0.54558111  0.27309917     0.33700
H2818       H  0.07639426  0.62615568  0.22617745     0.44500
H2819       H  0.99774696  0.57304322  0.18098536     0.38000
H2820       H  0.09262860  0.53237009  0.18803454     0.34500
H2821       H  0.11146879  0.59744231  0.27315874     0.26300
H2822       H  0.11702806  0.56546659  0.15726009     0.32300
H2823       H  0.06185399  0.54776232  0.11908774     0.38200
H2824       H  0.04084456  0.60521392  0.31217123     0.32600
H2825       H  0.97908071  0.55642174  0.27771439     0.31500
H2826       H  0.96447884  0.54135529  0.19808715     0.33200
H2827       H  0.00953779  0.51953674  0.14146859     0.32100
H2828       H  0.04499137  0.64312480  0.25864276     0.36100
H2829       H  0.03699855  0.66273747  0.20706588     0.28900
H2830       H  0.09351367  0.48289909  0.24688899     0.33100
H2831       H  0.05878413  0.49687946  0.16659861     0.36000
H2832       H  0.96346597  0.53871961  0.26073822     0.28600
H2833       H  0.02358353  0.66050249  0.18122441     0.41400
H2834       H  0.12846508  0.61992987  0.22840581     0.31500
H2835       H  0.10050724  0.62429600  0.27427779     0.39100
H2836       H  0.99624638  0.52669900  0.16626783     0.31000
H2837       H  0.13982717  0.57782154  0.17031976     0.31000
H2838       H  0.09298448  0.48496881  0.21776411     0.31300
Zr2839     Zr  0.06348735  0.35090206  0.28632593     2.17500
O2840       O  0.08399819  0.38854691  0.27172660    -0.51100
O2841       O  0.10682099  0.33771909  0.28615487    -0.74300
O2842       O  0.07733411  0.37455141  0.32216552    -0.81000
O2843       O  0.02478086  0.34941888  0.22801173    -0.82800
O2844       O  0.06358667  0.35499824  0.35685956    -0.78400
O2845       O  0.05245295  0.37359240  0.24895909    -0.90100
O2846       O  0.10893762  0.30011420  0.30488077    -0.76000
O2847       O  0.06556548  0.32350711  0.32044855    -0.85500
O2848       O  0.06679907  0.31104032  0.26701837    -0.85200
O2849       O  0.02687372  0.35952392  0.31061054    -0.72000
O2850       O  0.02663723  0.33916779  0.26955622    -0.84100
Zr2851     Zr  0.99355321  0.28364154  0.30201033     2.26400
Zr2852     Zr  0.02832532  0.32977755  0.34372061     2.06300
Zr2853     Zr  0.02822375  0.30552688  0.24453970     2.10000
Zr2854     Zr  0.06770475  0.28357820  0.30243586     1.78800
O2855       O  0.99866585  0.29908144  0.21093262    -0.92900
O2856       O  0.08433974  0.27304332  0.34310043    -0.40700
O2857       O  0.03079795  0.27915352  0.27928679    -0.77300
O2858       O  0.03053166  0.28841339  0.32690223    -0.96000
O2859       O  0.99078001  0.32370423  0.32061123    -0.89300
O2860       O  0.99031605  0.31103235  0.26728305    -0.92200
C2861       C  0.11871447  0.32002369  0.29676230     1.01600
C2862       C  0.03531666  0.37070329  0.23271025     1.14500
C2863       C  0.07753872  0.37068860  0.34561027     1.05300
O2864       O  0.04476212  0.31637447  0.38363659    -0.94300
O2865       O  0.99880787  0.30697676  0.36919084    -0.90100
O2866       O  0.98396999  0.27579458  0.34492504    -0.83200
C2867       C  0.98597224  0.28726955  0.36555115     1.11900
O2868       O  0.99354071  0.39398020  0.27206369    -0.96300
Zr2869     Zr  0.98983916  0.35137028  0.28658331     1.88900
O2870       O  0.95067788  0.29416324  0.29386548    -0.72900
O2871       O  0.00684301  0.36534968  0.36157390    -0.52200
O2872       O  0.97391453  0.37920700  0.31849591    -0.96900
O2873       O  0.96714164  0.36248147  0.24901781    -0.54100
O2874       O  0.94851231  0.33615055  0.29431022    -0.73500
C2875       C  0.93872185  0.31460488  0.29481527     0.98900
O2876       O  0.96894406  0.24580181  0.30647910    -0.62300
O2877       O  0.05989353  0.30060916  0.21268301    -0.57100
O2878       O  0.00208243  0.24635343  0.27794694    -0.93800
O2879       O  0.02344803  0.25820023  0.24354385    -0.92200
O2880       O  0.08778676  0.25910846  0.27017026    -0.92500
O2881       O  0.06677984  0.23901744  0.31009383    -0.91300
C2882       C  0.01354237  0.24115702  0.25776064     1.17700
H2883       H  0.08124314  0.30944572  0.25647552     0.33700
H2884       H  0.03095780  0.27632670  0.34020851     0.44500
H2885       H  0.97594205  0.30778086  0.25691769     0.38000
H2886       H  0.02700255  0.37629557  0.31678249     0.34500
H2887       H  0.10109973  0.26630259  0.33978701     0.26300
H2888       H  0.99525477  0.35817468  0.37386786     0.32300
H2889       H  0.96282892  0.36885968  0.32885542     0.38200
H2890       H  0.07392170  0.25151972  0.26075218     0.32600
H2891       H  0.05685243  0.28385020  0.20576872     0.31500
H2892       H  0.00487461  0.30953114  0.19717382     0.33200
H2893       H  0.95294227  0.37257098  0.25496462     0.32100
H2894       H  0.05505748  0.23682945  0.32406857     0.36100
H2895       H  0.97821747  0.23513956  0.31824166     0.28900
H2896       H  0.10092590  0.38785124  0.27889555     0.33100
H2897       H  0.01053490  0.39906126  0.27682011     0.36000
H2898       H  0.05482281  0.31211137  0.19928328     0.28600
H2899       H  0.95378520  0.25069302  0.31565097     0.41400
H2900       H  0.03688858  0.32752822  0.39594369     0.31500
H2901       H  0.08741723  0.28921712  0.35128883     0.39100
H2902       H  0.95937661  0.34684964  0.24327920     0.31000
H2903       H  0.01951934  0.37400020  0.37166740     0.31000
H2904       H  0.07579597  0.40234437  0.28071351     0.31300
Zr2905     Zr  0.87334121  0.27002924  0.43055430     2.17500
O2906       O  0.91653367  0.28035842  0.42228088    -0.51100
O2907       O  0.87265214  0.23704357  0.39960084    -0.74300
O2908       O  0.90729451  0.24849518  0.45109359    -0.81000
O2909       O  0.84364472  0.31760893  0.38571892    -0.82800
O2910       O  0.89216635  0.23378151  0.48793507    -0.78400
O2911       O  0.87769732  0.29328187  0.39185168    -0.90100
O2912       O  0.83234649  0.22593338  0.39414965    -0.76000
O2913       O  0.84735164  0.23725058  0.44562529    -0.85500
O2914       O  0.83425325  0.27731037  0.41157625    -0.85200
O2915       O  0.87109936  0.27523262  0.47481115    -0.72000
O2916       O  0.86171400  0.31145311  0.44293682    -0.84100
Zr2917     Zr  0.79269501  0.29077419  0.48382098     2.26400
Zr2918     Zr  0.84527960  0.24220359  0.49027301     2.06300
Zr2919     Zr  0.82173179  0.31795064  0.42458213     2.10000
Zr2920     Zr  0.80818060  0.24578675  0.42616244     1.78800
O2921       O  0.83530263  0.36059851  0.43043964    -0.92900
O2922       O  0.80054658  0.20211811  0.43524336    -0.40700
O2923       O  0.79410681  0.28616603  0.43903979    -0.77300
O2924       O  0.80608552  0.25051891  0.46936964    -0.96000
O2925       O  0.83213364  0.28300110  0.50290734    -0.89300
O2926       O  0.82016503  0.32245202  0.46876602    -0.92200
C2927       C  0.85535366  0.22498930  0.38851941     1.01600
C2928       C  0.86404211  0.30777224  0.37870168     1.14500
C2929       C  0.91041603  0.23854256  0.47251585     1.05300
O2930       O  0.85034729  0.19743901  0.49360778    -0.94300
O2931       O  0.80414815  0.22767762  0.50909448    -0.90100
O2932       O  0.78671655  0.26404401  0.51899413    -0.83200
C2933       C  0.78494996  0.24074174  0.51606721     1.11900
O2934       O  0.90064339  0.33034145  0.48090987    -0.96300
Zr2935     Zr  0.85865694  0.31499392  0.48746258     1.88900
O2936       O  0.79566017  0.31814523  0.51978323    -0.72900
O2937       O  0.85624439  0.24593927  0.53398591    -0.52200
O2938       O  0.88634177  0.30663585  0.52223460    -0.96900
O2939       O  0.85689234  0.36020785  0.48713904    -0.54100
O2940       O  0.83635591  0.32884157  0.52344095    -0.73500
C2941       C  0.81384091  0.32895033  0.53078560     0.98900
O2942       O  0.74925498  0.27814145  0.48365100    -0.62300
O2943       O  0.80033372  0.33922666  0.39083958    -0.57100
O2944       O  0.76661754  0.32574707  0.47313579    -0.93800
O2945       O  0.77833196  0.32062561  0.43481394    -0.92200
O2946       O  0.78726854  0.25303902  0.38674005    -0.92500
O2947       O  0.76431079  0.23499836  0.42728609    -0.91300
C2948       C  0.77162804  0.33509172  0.45213865     1.17700
H2949       H  0.83443700  0.27503564  0.39387749     0.33700
H2950       H  0.79309621  0.23897125  0.47137977     0.44500
H2951       H  0.81512414  0.33878235  0.47412558     0.38000
H2952       H  0.88730620  0.27578528  0.48217856     0.34500
H2953       H  0.80701668  0.19292810  0.42071164     0.26300
H2954       H  0.84327825  0.23652803  0.54293028     0.32300
H2955       H  0.88134513  0.29004283  0.52831863     0.38200
H2956       H  0.78980479  0.27089368  0.38324165     0.32600
H2957       H  0.78582162  0.32865698  0.38689806     0.31500
H2958       H  0.84105967  0.36593706  0.41382928     0.33200
H2959       H  0.86551782  0.36525069  0.47175272     0.32100
H2960       H  0.75621133  0.24929327  0.43552000     0.36100
H2961       H  0.74086167  0.28934087  0.49553809     0.28900
H2962       H  0.91691208  0.29863467  0.42045665     0.33100
H2963       H  0.90817624  0.31836799  0.46917557     0.36000
H2964       H  0.79318471  0.35438019  0.39838175     0.28600
H2965       H  0.74279009  0.28303014  0.46715531     0.41400
H2966       H  0.84842293  0.19392349  0.51154448     0.31500
H2967       H  0.81217740  0.19802357  0.44886882     0.39100
H2968       H  0.86810671  0.36545925  0.50073146     0.31000
H2969       H  0.87147200  0.23581143  0.53588629     0.31000
H2970       H  0.91971141  0.27384324  0.40540177     0.31300
Zr2971     Zr  0.55599785  0.32161881  0.51455259     2.17500
O2972       O  0.54028915  0.35081261  0.48366636    -0.51100
O2973       O  0.51740181  0.30183999  0.52779148    -0.74300
O2974       O  0.54170086  0.30062687  0.47836903    -0.81000
O2975       O  0.55873585  0.37081493  0.56382669    -0.82800
O2976       O  0.55345205  0.26213429  0.48825502    -0.78400
O2977       O  0.53388978  0.35613679  0.53296467    -0.90100
O2978       O  0.52950199  0.27199224  0.55511541    -0.76000
O2979       O  0.56533820  0.27911036  0.52317632    -0.85500
O2980       O  0.56247897  0.31766727  0.55814463    -0.85200
O2981       O  0.59170090  0.31064618  0.48948302    -0.72000
O2982       O  0.58983418  0.34918851  0.52286518    -0.84100
Zr2983     Zr  0.64015850  0.29276825  0.55255682     2.26400
Zr2984     Zr  0.60005531  0.26753682  0.49850350     2.06300
Zr2985     Zr  0.59582301  0.34529335  0.56677242     2.10000
Zr2986     Zr  0.57240412  0.27530869  0.56609016     1.78800
O2987       O  0.60927257  0.38842852  0.56677523    -0.92900
O2988       O  0.56573399  0.23086630  0.56175785    -0.40700
O2989       O  0.60492964  0.30311963  0.57700382    -0.77300
O2990       O  0.60797167  0.26362465  0.54239921    -0.96000
O2991       O  0.63365665  0.29476819  0.50877261    -0.89300
O2992       O  0.63193491  0.33515284  0.54340145    -0.92200
C2993       C  0.51324614  0.28317149  0.54197052     1.01600
C2994       C  0.53882875  0.37107436  0.55077843     1.14500
C2995       C  0.53645852  0.27790075  0.48082418     1.05300
O2996       O  0.59628711  0.22263560  0.49523904    -0.94300
O2997       O  0.64438513  0.24990158  0.49869143    -0.90100
O2998       O  0.66445345  0.26055386  0.53446998    -0.83200
C2999       C  0.66368225  0.24952074  0.51357742     1.11900
O3000       O  0.60914266  0.35953921  0.46444826    -0.96300
Zr3001     Zr  0.62618591  0.33705485  0.49982296     1.88900
O3002       O  0.67938242  0.30835277  0.53914269    -0.72900
O3003       O  0.60515692  0.26682104  0.45359449    -0.52200
O3004       O  0.64681829  0.32826182  0.46055650    -0.96900
O3005       O  0.63634472  0.38092069  0.50387623    -0.54100
O3006       O  0.67098943  0.33582380  0.50816185    -0.73500
C3007       C  0.68581531  0.32435301  0.52300753     0.98900
O3008       O  0.65323715  0.26541630  0.58609544    -0.62300
O3009       O  0.57950092  0.34796572  0.60883285    -0.57100
O3010       O  0.65701515  0.31620489  0.58712089    -0.93800
O3011       O  0.63056264  0.34816391  0.59541493    -0.92200
O3012       O  0.54816302  0.28054871  0.60382338    -0.92500
O3013       O  0.59233909  0.25495551  0.60106503    -0.91300
C3014       C  0.65054498  0.33572261  0.59911098     1.17700
H3015       H  0.54777570  0.32216627  0.56735311     0.33700
H3016       H  0.61313806  0.24678727  0.54645213     0.44500
H3017       H  0.64548565  0.34581447  0.54828655     0.38000
H3018       H  0.58781014  0.31261618  0.47206356     0.34500
H3019       H  0.55081581  0.22757498  0.57195910     0.26300
H3020       H  0.61509169  0.28179291  0.44979310     0.32300
H3021       H  0.65786290  0.31399941  0.46404720     0.38200
H3022       H  0.53821111  0.26513500  0.60501989     0.32600
H3023       H  0.58202456  0.36551306  0.61367193     0.31500
H3024       H  0.60030358  0.39621286  0.55275505     0.33200
H3025       H  0.64764256  0.38188741  0.51833316     0.32100
H3026       H  0.59795948  0.26866859  0.61193896     0.36100
H3027       H  0.64530985  0.24926667  0.58243398     0.28900
H3028       H  0.54901006  0.34648453  0.46807868     0.33100
H3029       H  0.59637635  0.37066655  0.47158999     0.36000
H3030       H  0.56129081  0.34623028  0.60706284     0.28600
H3031       H  0.67118201  0.26257905  0.58329613     0.41400
H3032       H  0.59040027  0.21725322  0.51177621     0.31500
H3033       H  0.55991749  0.22872464  0.54447146     0.39100
H3034       H  0.62082306  0.38890994  0.50959982     0.31000
H3035       H  0.61667592  0.25281867  0.45053159     0.31000
H3036       H  0.54750119  0.36704755  0.48835635     0.31300
Zr3037     Zr  0.30289704  0.21818478  0.50651826     2.17500
O3038       O  0.25771192  0.21771408  0.50380161    -0.51100
O3039       O  0.31207443  0.18661966  0.47527365    -0.74300
O3040       O  0.28332293  0.23725982  0.47117764    -0.81000
O3041       O  0.30114787  0.18184551  0.56686518    -0.82800
O3042       O  0.30413745  0.27359137  0.46475760    -0.78400
O3043       O  0.28689837  0.18128313  0.52701733    -0.90100
O3044       O  0.35200228  0.17450152  0.48150560    -0.76000
O3045       O  0.34104444  0.22621070  0.48539904    -0.85500
O3046       O  0.33342856  0.19608179  0.52942671    -0.85200
O3047       O  0.30916495  0.26219833  0.50990657    -0.72000
O3048       O  0.30059922  0.23500601  0.54791256    -0.84100
Zr3049     Zr  0.37777779  0.26504224  0.54976952     2.26400
Zr3050     Zr  0.34635652  0.27075794  0.48666575     2.06300
Zr3051     Zr  0.33253585  0.21365722  0.56990078     2.10000
Zr3052     Zr  0.37101551  0.20334687  0.50950653     1.78800
O3053       O  0.30569217  0.22149719  0.60539508    -0.92900
O3054       O  0.39792851  0.20175469  0.47321738    -0.40700
O3055       O  0.37212886  0.22061649  0.55055903    -0.77300
O3056       O  0.37623745  0.24629572  0.50938065    -0.96000
O3057       O  0.34670580  0.28798241  0.52798508    -0.89300
O3058       O  0.34015181  0.25713698  0.57155873    -0.92200
C3059       C  0.33097322  0.17278935  0.47079212     1.01600
C3060       C  0.28961732  0.17181543  0.54869879     1.14500
C3061       C  0.28438961  0.25946962  0.46294752     1.05300
O3062       O  0.35281354  0.27119662  0.44195927    -0.94300
O3063       O  0.39245342  0.28173929  0.48208731    -0.90100
O3064       O  0.40992513  0.27968834  0.52075333    -0.83200
C3065       C  0.41165161  0.28279283  0.49707712     1.11900
O3066       O  0.26596148  0.28916458  0.54099178    -0.96300
Zr3067     Zr  0.30908407  0.27887641  0.55020954     1.88900
O3068       O  0.36957329  0.30506111  0.56904312    -0.72900
O3069       O  0.34436839  0.31590730  0.48655811    -0.52200
O3070       O  0.30066110  0.32143473  0.53748229    -0.96900
O3071       O  0.28451512  0.27103764  0.58737059    -0.54100
O3072       O  0.32890669  0.30571482  0.57990526    -0.73500
C3073       C  0.35121614  0.31346399  0.58161394     0.98900
O3074       O  0.42051828  0.27399813  0.56146860    -0.62300
O3075       O  0.34955955  0.17529546  0.58678214    -0.57100
O3076       O  0.38699810  0.25118169  0.59204763    -0.93800
O3077       O  0.35931213  0.22160695  0.60420004    -0.92200
O3078       O  0.37773353  0.16363812  0.53012218    -0.92500
O3079       O  0.41514951  0.19745775  0.51762563    -0.91300
C3080       C  0.37748916  0.23624309  0.60800572     1.17700
H3081       H  0.33148555  0.17829951  0.52938077     0.33700
H3082       H  0.39235934  0.24435667  0.50146677     0.44500
H3083       H  0.34062499  0.26261694  0.58855733     0.38000
H3084       H  0.29434849  0.27104187  0.50481477     0.34500
H3085       H  0.40152263  0.18388556  0.47076296     0.26300
H3086       H  0.34977365  0.32086694  0.46973328     0.32300
H3087       H  0.29517194  0.33002416  0.55279168     0.38200
H3088       H  0.38603554  0.15314794  0.51752655     0.32600
H3089       H  0.33693328  0.16933493  0.59872494     0.31500
H3090       H  0.28867666  0.21817586  0.59934669     0.33200
H3091       H  0.27097254  0.25984004  0.58195419     0.32100
H3092       H  0.41658915  0.19685922  0.53593851     0.36100
H3093       H  0.41933863  0.28563791  0.57564757     0.28900
H3094       H  0.25192129  0.21973918  0.52111862     0.33100
H3095       H  0.25800055  0.27302215  0.53730176     0.36000
H3096       H  0.34885267  0.16326863  0.57290809     0.28600
H3097       H  0.42692346  0.25837950  0.56867893     0.41400
H3098       H  0.35833623  0.28831805  0.43819938     0.31500
H3099       H  0.38700824  0.20623231  0.45913412     0.39100
H3100       H  0.27617544  0.28698632  0.59102322     0.31000
H3101       H  0.32639364  0.31973699  0.48695539     0.31000
H3102       H  0.25312753  0.20052506  0.49923091     0.31300
Zr3103     Zr  0.05420444  0.18506508  0.46571762     2.17500
O3104       O  0.03433764  0.16509056  0.50106362    -0.51100
O3105       O  0.01677327  0.20010266  0.44626929    -0.74300
O3106       O  0.03996528  0.21600848  0.49405622    -0.81000
O3107       O  0.05592837  0.12483499  0.43029058    -0.82800
O3108       O  0.05346486  0.25036389  0.47520054    -0.78400
O3109       O  0.03134636  0.14800207  0.45573534    -0.90100
O3110       O  0.02970425  0.21982066  0.41123271    -0.76000
O3111       O  0.06521377  0.22318728  0.44594323    -0.85500
O3112       O  0.06258337  0.17625151  0.42321416    -0.85200
O3113       O  0.08877773  0.20190003  0.48872211    -0.72000
O3114       O  0.08664328  0.15498327  0.46712354    -0.84100
Zr3115     Zr  0.14132045  0.19999019  0.42684321     2.26400
Zr3116     Zr  0.09952300  0.24032657  0.46815933     2.06300
Zr3117     Zr  0.09530304  0.14652464  0.42428546     2.10000
Zr3118     Zr  0.07385516  0.21417501  0.40406027     1.78800
O3119       O  0.10746269  0.10593481  0.43992417    -0.92900
O3120       O  0.06599115  0.25770091  0.39441102    -0.40700
O3121       O  0.10672932  0.18432195  0.40391715    -0.77300
O3122       O  0.10927609  0.23103206  0.42548492    -0.96000
O3123       O  0.13219790  0.21022490  0.46877215    -0.89300
O3124       O  0.13031339  0.16202646  0.44634484    -0.92200
C3125       C  0.01303265  0.21320328  0.42687931     1.01600
C3126       C  0.03552619  0.12921329  0.44185806     1.14500
C3127       C  0.03575203  0.23753445  0.48567285     1.05300
O3128       O  0.09675453  0.28406053  0.45704514    -0.94300
O3129       O  0.14393154  0.25698608  0.46557300    -0.90100
O3130       O  0.16599834  0.23547161  0.43654788    -0.83200
C3131       C  0.16414650  0.25253235  0.45282365     1.11900
O3132       O  0.10183554  0.16109522  0.52722637    -0.96300
Zr3133     Zr  0.12188030  0.17214984  0.48827367     1.88900
O3134       O  0.17887677  0.18633637  0.44750566    -0.72900
O3135       O  0.10432034  0.25301256  0.51127864    -0.52200
O3136       O  0.14176337  0.19079607  0.52432424    -0.96900
O3137       O  0.12743669  0.12802178  0.49647727    -0.54100
O3138       O  0.16658654  0.16769874  0.48335521    -0.73500
C3139       C  0.18313101  0.17430066  0.46754794     0.98900
O3140       O  0.15753129  0.21621963  0.38782831    -0.62300
O3141       O  0.08153792  0.13021269  0.38436459    -0.57100
O3142       O  0.15933794  0.16762304  0.40212983    -0.93800
O3143       O  0.13204679  0.13535202  0.40015622    -0.92200
O3144       O  0.05409377  0.19440214  0.36842938    -0.92500
O3145       O  0.09394422  0.22398426  0.36483791    -0.91300
C3146       C  0.15290963  0.14585274  0.39530500     1.17700
H3147       H  0.04812329  0.16976414  0.41481310     0.33700
H3148       H  0.11537621  0.24570989  0.41716203     0.44500
H3149       H  0.14355765  0.14996369  0.44557108     0.38000
H3150       H  0.08413453  0.20514999  0.50571043     0.34500
H3151       H  0.05605775  0.26394831  0.40855073     0.26300
H3152       H  0.11276810  0.26931330  0.51044098     0.32300
H3153       H  0.15414174  0.20247685  0.51741910     0.38200
H3154       H  0.03617171  0.19355819  0.37237727     0.32600
H3155       H  0.06370290  0.13456096  0.38327151     0.31500
H3156       H  0.09943368  0.10470759  0.45639779     0.33200
H3157       H  0.13755686  0.12732925  0.51179532     0.32100
H3158       H  0.10393600  0.20912093  0.36067692     0.36100
H3159       H  0.15569743  0.23446227  0.38892414     0.28900
H3160       H  0.01784062  0.17309593  0.50248344     0.33100
H3161       H  0.08765109  0.15049992  0.52229232     0.36000
H3162       H  0.08956363  0.14101894  0.37188411     0.28600
H3163       H  0.17566746  0.21328418  0.38861411     0.41400
H3164       H  0.10736593  0.29275458  0.46927920     0.31500
H3165       H  0.08221435  0.26612947  0.39615946     0.39100
H3166       H  0.13873449  0.12210996  0.48325950     0.31000
H3167       H  0.08729471  0.25690784  0.51693031     0.31000
H3168       H  0.04369464  0.17094471  0.51574961     0.31300
C3169       C  0.18775954  0.26576947  0.45696565    -0.18200
C3170       C  0.21013748  0.27057727  0.45674171     0.05800
C3171       C  0.23711727  0.27180758  0.45527453     0.07700
C3172       C  0.25986822  0.26926542  0.45570751    -0.19100
C3173       C  0.50944199  0.27235808  0.47944194    -0.18200
C3174       C  0.48653548  0.27448203  0.48039223     0.05800
C3175       C  0.45988582  0.27946253  0.48316786     0.07700
C3176       C  0.43752217  0.28295476  0.48735089    -0.19100
C3177       C  0.93683038  0.23620074  0.47997633    -0.18200
C3178       C  0.95947182  0.23888223  0.48269731     0.05800
C3179       C  0.98624013  0.24315893  0.48418883     0.07700
C3180       C  0.00914460  0.24442499  0.48493129    -0.19100
C3181       C  0.75924409  0.23106980  0.51519306    -0.18200
C3182       C  0.73656608  0.22962765  0.51209336     0.05800
C3183       C  0.70985819  0.23226530  0.50824737     0.07700
C3184       C  0.68756189  0.23754878  0.50732975    -0.19100
C3185       C  0.97436546  0.27556601  0.38622002    -0.18200
C3186       C  0.96979945  0.25991706  0.40134861     0.05800
C3187       C  0.97471810  0.23858747  0.41528121     0.07700
C3188       C  0.98889631  0.22323422  0.42286472    -0.19100
C3189       C  0.91286278  0.31333156  0.29975167    -0.18200
C3190       C  0.89427340  0.31304356  0.31186757     0.05800
C3191       C  0.87923459  0.31292601  0.33296949     0.07700
C3192       C  0.87125566  0.31176041  0.35366458    -0.19100
C3193       C  0.01129405  0.46444322  0.22617694    -0.18200
C3194       C  0.01283760  0.44191520  0.22290325     0.05800
C3195       C  0.01878151  0.41574497  0.22071127     0.07700
C3196       C  0.02558981  0.39403269  0.22240645    -0.19100
C3197       C  0.98290497  0.70982549  0.27179290    -0.18200
C3198       C  0.97873708  0.68748742  0.27018949     0.05800
C3199       C  0.97625226  0.66168836  0.26309796     0.07700
C3200       C  0.97752782  0.64093298  0.25378772    -0.19100
C3201       C  0.86186966  0.20891546  0.36835411    -0.18200
C3202       C  0.86541769  0.19391323  0.35215919     0.05800
C3203       C  0.86957139  0.17431391  0.33531349     0.07700
C3204       C  0.87560482  0.15621144  0.32366514    -0.19100
C3205       C  0.98689390  0.96438449  0.27941813    -0.18200
C3206       C  0.98697133  0.94159617  0.28086281     0.05800
C3207       C  0.98330736  0.91489551  0.28067130     0.07700
C3208       C  0.97870031  0.89273815  0.27764266    -0.19100
C3209       C  0.01323481  0.14429419  0.27047798    -0.18200
C3210       C  0.01716235  0.16553194  0.26299104     0.05800
C3211       C  0.01809161  0.19165879  0.25622268     0.07700
C3212       C  0.01706087  0.21433698  0.25345697    -0.19100
C3213       C  0.01479468  0.11345537  0.43683081    -0.18200
C3214       C  0.99644235  0.10412877  0.42821079     0.05800
C3215       C  0.97667337  0.09652176  0.41294660     0.07700
C3216       C  0.96331510  0.09140213  0.39581924    -0.19100
C3217       C  0.14475245  0.32309177  0.30072632    -0.18200
C3218       C  0.16621577  0.32772942  0.30462638     0.05800
C3219       C  0.19051314  0.33700665  0.30609962     0.07700
C3220       C  0.20901739  0.34846220  0.30144743    -0.19100
C3221       C  0.14984049  0.53365850  0.25642244    -0.18200
C3222       C  0.16235093  0.52161673  0.27052700     0.05800
C3223       C  0.17432485  0.50182926  0.28278853     0.07700
C3224       C  0.18458506  0.48211788  0.28512516    -0.19100
C3225       C  0.07751554  0.53062044  0.32172960    -0.18200
C3226       C  0.07990977  0.52538060  0.34298660     0.05800
C3227       C  0.08491121  0.52251527  0.36796968     0.07700
C3228       C  0.09342405  0.52116993  0.38824228    -0.19100
C3229       C  0.26675639  0.49243290  0.32291608    -0.18200
C3230       C  0.26298723  0.49635090  0.34521685     0.05800
C3231       C  0.25592708  0.49674958  0.37142893     0.07700
C3232       C  0.24696395  0.49610756  0.39255258    -0.19100
C3233       C  0.14026608  0.42440294  0.39796180    -0.18200
C3234       C  0.12784235  0.41094800  0.38498814     0.05800
C3235       C  0.11062680  0.39642613  0.37136247     0.07700
C3236       C  0.09520975  0.38466444  0.36004490    -0.19100
C3237       C  0.23334733  0.51590065  0.64107204    -0.18200
C3238       C  0.23450114  0.50862300  0.61943789     0.05800
C3239       C  0.23471976  0.50373076  0.59291562     0.07700
C3240       C  0.23123921  0.50138398  0.57046924    -0.19100
C3241       C  0.28178680  0.51196115  0.07173865    -0.18200
C3242       C  0.27916090  0.50833448  0.09432856     0.05800
C3243       C  0.27982945  0.50268761  0.12100251     0.07700
C3244       C  0.28114601  0.49544616  0.14282602    -0.19100
C3245       C  0.26476505  0.51804225  0.89107269    -0.18200
C3246       C  0.25599519  0.51705116  0.86983685     0.05800
C3247       C  0.24891391  0.51677625  0.84356508     0.07700
C3248       C  0.24468066  0.52005005  0.82120649    -0.19100
C3249       C  0.38096781  0.36774720  0.65514781    -0.18200
C3250       C  0.37087396  0.35708835  0.63839557     0.05800
C3251       C  0.36194222  0.34441289  0.61747399     0.07700
C3252       C  0.35631571  0.33175191  0.60003404    -0.19100
C3253       C  0.36135167  0.48387177  0.77015165    -0.18200
C3254       C  0.34872527  0.49611218  0.78378288     0.05800
C3255       C  0.33542834  0.51542562  0.79494281     0.07700
C3256       C  0.32386269  0.53438245  0.79486872    -0.19100
C3257       C  0.44391087  0.46169213  0.82886309    -0.18200
C3258       C  0.43928624  0.46836535  0.84949717     0.05800
C3259       C  0.42993023  0.47669910  0.87213634     0.07700
C3260       C  0.41881460  0.48359138  0.89004367    -0.19100
C3261       C  0.52005963  0.38840845  0.55800330    -0.18200
C3262       C  0.50463415  0.40064987  0.56852218     0.05800
C3263       C  0.48816894  0.41156925  0.58560784     0.07700
C3264       C  0.47647757  0.41790078  0.60354375    -0.19100
C3265       C  0.42524393  0.62670864  0.86027380    -0.18200
C3266       C  0.40963937  0.61480368  0.87110837     0.05800
C3267       C  0.39178602  0.60039928  0.88392630     0.07700
C3268       C  0.37848497  0.58733231  0.89636150    -0.19100
C3269       C  0.49451223  0.60637794  0.72449526    -0.18200
C3270       C  0.49979770  0.58442941  0.72167902     0.05800
C3271       C  0.50355131  0.55788505  0.72212704     0.07700
C3272       C  0.50317448  0.53523535  0.72413664    -0.19100
C3273       C  0.37205095  0.67311131  0.79888583    -0.18200
C3274       C  0.35045479  0.67058653  0.80376313     0.05800
C3275       C  0.32484745  0.66658238  0.80613897     0.07700
C3276       C  0.30421782  0.65947514  0.80186987    -0.19100
C3277       C  0.48907398  0.78730272  0.73095474    -0.18200
C3278       C  0.48388395  0.80934006  0.72954672     0.05800
C3279       C  0.47947353  0.83545809  0.73293355     0.07700
C3280       C  0.47880516  0.85721764  0.73927126    -0.19100
C3281       C  0.48584968  0.22695085  0.59064204    -0.18200
C3282       C  0.47762131  0.23875042  0.57354299     0.05800
C3283       C  0.47742593  0.25707838  0.55497424     0.07700
C3284       C  0.48899555  0.27279746  0.54424428    -0.19100
C3285       C  0.50757667  0.03570535  0.74785145    -0.18200
C3286       C  0.50949222  0.05812497  0.75088685     0.05800
C3287       C  0.51689314  0.08369122  0.75351697     0.07700
C3288       C  0.52554582  0.10465040  0.75246268    -0.19100
C3289       C  0.52894957  0.28481204  0.73266122    -0.18200
C3290       C  0.53021977  0.30755731  0.73179848     0.05800
C3291       C  0.52918435  0.33397139  0.72683215     0.07700
C3292       C  0.52488031  0.35556726  0.72091652    -0.19100
C3293       C  0.42760949  0.21067208  0.68079160    -0.18200
C3294       C  0.40996384  0.22012502  0.67132560     0.05800
C3295       C  0.39600931  0.23038152  0.65214387     0.07700
C3296       C  0.38762757  0.23543831  0.63224881    -0.19100
C3297       C  0.35560213  0.38647888  0.17095600    -0.18200
C3298       C  0.37023474  0.37334452  0.16060422     0.05800
C3299       C  0.38533144  0.35549048  0.14931415     0.07700
C3300       C  0.39745726  0.33998236  0.13898762    -0.19100
C3301       C  0.42098596  0.45866852  0.04710908    -0.18200
C3302       C  0.42988955  0.43960585  0.05478891     0.05800
C3303       C  0.43740279  0.41492834  0.05972280     0.07700
C3304       C  0.44262826  0.39325447  0.06212018    -0.19100
C3305       C  0.63872344  0.24727792  0.03168833    -0.18200
C3306       C  0.61731013  0.25327402  0.02659315     0.05800
C3307       C  0.59104967  0.25734136  0.02234558     0.07700
C3308       C  0.56831110  0.25909205  0.02211796    -0.19100
C3309       C  0.88949711  0.21565355  0.00742410    -0.18200
C3310       C  0.86808937  0.22173328  0.01279829     0.05800
C3311       C  0.84181542  0.22730362  0.01594957     0.07700
C3312       C  0.81900320  0.22907837  0.01646182    -0.19100
C3313       C  0.25190181  0.40053077  0.03472552    -0.18200
C3314       C  0.26405338  0.41290039  0.04863170     0.05800
C3315       C  0.28492837  0.42592995  0.05678853     0.07700
C3316       C  0.30375836  0.43692486  0.05266591    -0.19100
C3317       C  0.06983582  0.23117949  0.98719782    -0.18200
C3318       C  0.09265110  0.23210218  0.98580098     0.05800
C3319       C  0.11888203  0.23510390  0.98005286     0.07700
C3320       C  0.14014213  0.24014913  0.97328714    -0.19100
C3321       C  0.38999524  0.27573997  0.99486021    -0.18200
C3322       C  0.36842907  0.27044369  0.98948529     0.05800
C3323       C  0.34195168  0.26626006  0.98644560     0.07700
C3324       C  0.31912604  0.26590314  0.98539332    -0.19100
C3325       C  0.24318436  0.31761794  0.08130245    -0.18200
C3326       C  0.24814751  0.32231562  0.10264279     0.05800
C3327       C  0.25306913  0.33146792  0.12675087     0.07700
C3328       C  0.25617176  0.34239775  0.14606062    -0.19100
C3329       C  0.51662434  0.10364077  0.10783554    -0.18200
C3330       C  0.51076877  0.12226804  0.09693481     0.05800
C3331       C  0.50285954  0.14492698  0.08647498     0.07700
C3332       C  0.49611861  0.16530709  0.08022275    -0.19100
C3333       C  0.62363740  0.06649853  0.14513672    -0.18200
C3334       C  0.63796923  0.07721485  0.13165780     0.05800
C3335       C  0.65219616  0.08981615  0.11352074     0.07700
C3336       C  0.66306874  0.10138626  0.09769017    -0.19100
C3337       C  0.70352188  0.18505651  0.14886245    -0.18200
C3338       C  0.69757712  0.18813740  0.17024371     0.05800
C3339       C  0.68799993  0.19416283  0.19391077     0.07700
C3340       C  0.67703904  0.20240885  0.21159738    -0.19100
C3341       C  0.53926738  0.16729438  0.27551150    -0.18200
C3342       C  0.53706740  0.14458688  0.27278680     0.05800
C3343       C  0.53824180  0.11801619  0.26714136     0.07700
C3344       C  0.54014120  0.09649306  0.25930478    -0.19100
C3345       C  0.55405736  0.18913267  0.19384158    -0.18200
C3346       C  0.53477100  0.18690648  0.18296448     0.05800
C3347       C  0.51448855  0.19786353  0.17084058     0.07700
C3348       C  0.50291343  0.21309659  0.15937378    -0.19100
C3349       C  0.51196493  0.34580837  0.28230286    -0.18200
C3350       C  0.50321007  0.36700797  0.28059914     0.05800
C3351       C  0.49666586  0.39337552  0.27900297     0.07700
C3352       C  0.49314594  0.41600516  0.28102584    -0.19100
C3353       C  0.50589586  0.84466422  0.24023149    -0.18200
C3354       C  0.51361666  0.86635115  0.24207857     0.05800
C3355       C  0.51924957  0.89310245  0.24355357     0.07700
C3356       C  0.52219420  0.91594538  0.24183532    -0.19100
C3357       C  0.48499714  0.66448861  0.24983333    -0.18200
C3358       C  0.48533641  0.64206901  0.25443029     0.05800
C3359       C  0.48125757  0.61616355  0.26103736     0.07700
C3360       C  0.47730708  0.59512769  0.26914136    -0.19100
C3361       C  0.17533858  0.30058684  0.78662586    -0.18200
C3362       C  0.18508390  0.30863564  0.80504500     0.05800
C3363       C  0.19273916  0.31322482  0.82964339     0.07700
C3364       C  0.19744428  0.31444744  0.85147373    -0.19100
C3365       C  0.00765717  0.27968370  0.85125883    -0.18200
C3366       C  0.01801242  0.29561907  0.83961958     0.05800
C3367       C  0.03696153  0.30764746  0.82646911     0.07700
C3368       C  0.05569091  0.30631869  0.81455479    -0.19100
C3369       C  0.01140883  0.38595722  0.89227925    -0.18200
C3370       C  0.00645483  0.36717380  0.90316682     0.05800
C3371       C  0.99941969  0.34438486  0.91361268     0.07700
C3372       C  0.99353461  0.32405158  0.92053202    -0.19100
C3373       C  0.03528716  0.39450906  0.74039925    -0.18200
C3374       C  0.03252326  0.37272582  0.73409563     0.05800
C3375       C  0.03043265  0.34599535  0.73114897     0.07700
C3376       C  0.03258295  0.32325542  0.73069635    -0.19100
C3377       C  0.11125350  0.41722813  0.85537526    -0.18200
C3378       C  0.12394770  0.40633938  0.87022832     0.05800
C3379       C  0.13648243  0.39410747  0.88971228     0.07700
C3380       C  0.14701896  0.38314632  0.90612490    -0.19100
C3381       C  0.00222293  0.64446619  0.76104009    -0.18200
C3382       C  0.00998503  0.62294018  0.75863384     0.05800
C3383       C  0.01550905  0.59637127  0.75635745     0.07700
C3384       C  0.01814290  0.57355638  0.75765793    -0.19100
C3385       C  0.01523384  0.14458283  0.73619212    -0.18200
C3386       C  0.00630983  0.12354235  0.73818507     0.05800
C3387       C  0.99916858  0.09740234  0.73953997     0.07700
C3388       C  0.99498670  0.07500660  0.73683078    -0.19100
C3389       C  0.98026333  0.89567224  0.74086573    -0.18200
C3390       C  0.98233735  0.87409115  0.74818505     0.05800
C3391       C  0.98397711  0.84756487  0.75314139     0.07700
C3392       C  0.98203307  0.82484911  0.75510803    -0.19100
C3393       C  0.33714531  0.09702071  0.41109670    -0.18200
C3394       C  0.33575654  0.11538176  0.42369773     0.05800
C3395       C  0.33157734  0.13643394  0.43857092     0.07700
C3396       C  0.32915626  0.15371384  0.45248186    -0.19100
C3397       C  0.40554973  0.99982045  0.28786079    -0.18200
C3398       C  0.41710567  0.98828522  0.27254817     0.05800
C3399       C  0.42717898  0.97759115  0.25083415     0.07700
C3400       C  0.43639241  0.97388103  0.23080111    -0.19100
C3401       C  0.34667769  0.91602852  0.29816721    -0.18200
C3402       C  0.34902571  0.89549467  0.29014225     0.05800
C3403       C  0.35201075  0.87139600  0.28120152     0.07700
C3404       C  0.35790061  0.85130133  0.27392437    -0.19100
C3405       C  0.17153553  0.13203413  0.38256892    -0.18200
C3406       C  0.19020461  0.12256184  0.37491248     0.05800
C3407       C  0.21329925  0.11234806  0.36841578     0.07700
C3408       C  0.23258115  0.10221297  0.36366948    -0.19100
C3409       C  0.25027648  0.11991304  0.50008970    -0.18200
C3410       C  0.24292594  0.13732209  0.48818822     0.05800
C3411       C  0.22647851  0.15495397  0.47806484     0.07700
C3412       C  0.20803497  0.16616082  0.47221764    -0.19100
C3413       C  0.15988896  0.09767795  0.63076588    -0.18200
C3414       C  0.14583922  0.11130114  0.64151965     0.05800
C3415       C  0.13112914  0.12858972  0.65446014     0.07700
C3416       C  0.12098263  0.14436262  0.66658099    -0.19100
C3417       C  0.23528389  0.97800546  0.40682992    -0.18200
C3418       C  0.23465693  0.97114415  0.42846655     0.05800
C3419       C  0.23793436  0.96820149  0.45485790     0.07700
C3420       C  0.24212011  0.97026970  0.47708741    -0.19100
C3421       C  0.11506046  0.03999445  0.57937080    -0.18200
C3422       C  0.09423650  0.04773586  0.58117413     0.05800
C3423       C  0.06927785  0.05366448  0.58553410     0.07700
C3424       C  0.04869049  0.05193490  0.59371351    -0.19100
C3425       C  0.30701408  0.07941479  0.55630656    -0.18200
C3426       C  0.29980493  0.10043447  0.55441571     0.05800
C3427       C  0.28982567  0.12449161  0.55307221     0.07700
C3428       C  0.28468386  0.14610102  0.55144513    -0.19100
C3429       C  0.11769043  0.01994515  0.77355114    -0.18200
C3430       C  0.10430243  0.02926894  0.75827946     0.05800
C3431       C  0.09073292  0.03624199  0.73704307     0.07700
C3432       C  0.07883003  0.03586054  0.71815448    -0.19100
C3433       C  0.24191016  0.96904647  0.65782858    -0.18200
C3434       C  0.25006470  0.96806056  0.67904431     0.05800
C3435       C  0.25746948  0.97045548  0.70470063     0.07700
C3436       C  0.25960478  0.97438326  0.72699851    -0.19100
C3437       C  0.20165460  0.08429023  0.79179629    -0.18200
C3438       C  0.19436752  0.10375713  0.78397811     0.05800
C3439       C  0.18170971  0.12455809  0.77503251     0.07700
C3440       C  0.16888701  0.14135695  0.76817133    -0.19100
C3441       C  0.39361734  0.83753394  0.16823821    -0.18200
C3442       C  0.37896440  0.85038973  0.15725248     0.05800
C3443       C  0.35933226  0.86394492  0.14637087     0.07700
C3444       C  0.34247584  0.87561459  0.13736671    -0.19100
C3445       C  0.28429483  0.00232871  0.97691365    -0.18200
C3446       C  0.28685205  0.00096188  0.95429865     0.05800
C3447       C  0.28695832  0.99508580  0.92804479     0.07700
C3448       C  0.28329156  0.98792314  0.90670689    -0.19100
C3449       C  0.28073857  0.01333247  0.15944707    -0.18200
C3450       C  0.27419681  0.01340975  0.18129595     0.05800
C3451       C  0.26871239  0.00915515  0.20730022     0.07700
C3452       C  0.26759282  0.00476493  0.22965496    -0.19100
C3453       C  0.39942191  0.94084357  0.08542324    -0.18200
C3454       C  0.42148780  0.94092005  0.08836725     0.05800
C3455       C  0.44655624  0.94461046  0.09421805     0.07700
C3456       C  0.46566915  0.95173672  0.10309415    -0.19100
C3457       C  0.05036337  0.80687600  0.12267780    -0.18200
C3458       C  0.06013559  0.80405630  0.14247073     0.05800
C3459       C  0.06991848  0.79904976  0.16602214     0.07700
C3460       C  0.07270891  0.79565945  0.18782212    -0.19100
C3461       C  0.16936003  0.96422739  0.05933126    -0.18200
C3462       C  0.14966171  0.95417864  0.06049493     0.05800
C3463       C  0.13570605  0.93285800  0.06487399     0.07700
C3464       C  0.13062972  0.91142340  0.06763146    -0.19100
C3465       C  0.09356214  0.65374817  0.15214007    -0.18200
C3466       C  0.09402981  0.67024839  0.13728045     0.05800
C3467       C  0.09093740  0.69009788  0.12084173     0.07700
C3468       C  0.08907724  0.70795040  0.10774452    -0.19100
C3469       C  0.12344604  0.88948894  0.96531531    -0.18200
C3470       C  0.12753021  0.90420874  0.94894991     0.05800
C3471       C  0.13377543  0.91972085  0.92875433     0.07700
C3472       C  0.14182974  0.93105428  0.91121866    -0.19100
C3473       C  0.42688663  0.88720528  0.89504020    -0.18200
C3474       C  0.44377778  0.89850980  0.88611527     0.05800
C3475       C  0.46536504  0.90766203  0.87505504     0.07700
C3476       C  0.48323742  0.91276702  0.86291857    -0.19100
C3477       C  0.28157731  0.81413646  0.86858184    -0.18200
C3478       C  0.26407409  0.82520772  0.86027244     0.05800
C3479       C  0.24645150  0.84371699  0.85487832     0.07700
C3480       C  0.23473398  0.86244346  0.85160858    -0.19100
C3481       C  0.27421780  0.77320640  0.00344792    -0.18200
C3482       C  0.25147605  0.77474986  0.00286640     0.05800
C3483       C  0.22505567  0.77789156  0.99881662     0.07700
C3484       C  0.20285112  0.78229056  0.99593763    -0.19100
C3485       C  0.47429964  0.79460844  0.92853640    -0.18200
C3486       C  0.49156362  0.78909255  0.91551263     0.05800
C3487       C  0.50499643  0.77820338  0.89595703     0.07700
C3488       C  0.50977245  0.76547551  0.87825198    -0.19100
C3489       C  0.24887501  0.82919315  0.96853274    -0.18200
C3490       C  0.23289926  0.83728408  0.98170034     0.05800
C3491       C  0.22549439  0.85180835  0.00188997     0.07700
C3492       C  0.22851408  0.86658757  0.01825630    -0.19100
C3493       C  0.55040568  0.72047535  0.90204216    -0.18200
C3494       C  0.55638412  0.71920028  0.88056734     0.05800
C3495       C  0.56415035  0.71868644  0.85562364     0.07700
C3496       C  0.56850063  0.71670270  0.83382168    -0.19100
C3497       C  0.52511037  0.80445506  0.02805996    -0.18200
C3498       C  0.50214763  0.80441040  0.02948246     0.05800
C3499       C  0.47502653  0.80327019  0.02733594     0.07700
C3500       C  0.45252648  0.80331911  0.02253196    -0.19100
C3501       C  0.58288081  0.82317044  0.91214559    -0.18200
C3502       C  0.58191695  0.83751512  0.89506358     0.05800
C3503       C  0.58216825  0.85251341  0.87365671     0.07700
C3504       C  0.58113529  0.86447729  0.85482132    -0.19100
C3505       C  0.94501059  0.62732689  0.08053293    -0.18200
C3506       C  0.96145579  0.61546270  0.08970182     0.05800
C3507       C  0.98069080  0.60548293  0.10407140     0.07700
C3508       C  0.99596315  0.59932208  0.11903578    -0.19100
C3509       C  0.95738070  0.75072400  0.99188931    -0.18200
C3510       C  0.97997965  0.75049949  0.98857119     0.05800
C3511       C  0.00666345  0.74659354  0.98827772     0.07700
C3512       C  0.02905116  0.74351455  0.99162504    -0.19100
C3513       C  0.77790653  0.76878899  0.02941430    -0.18200
C3514       C  0.75487568  0.76996832  0.03077812     0.05800
C3515       C  0.72777401  0.77005752  0.03467334     0.07700
C3516       C  0.70487034  0.76827350  0.03707315    -0.19100
C3517       C  0.02581169  0.73717183  0.13057433    -0.18200
C3518       C  0.02032807  0.72583968  0.11220310     0.05800
C3519       C  0.00376945  0.71901049  0.09328742     0.07700
C3520       C  0.98471652  0.71807935  0.08169435    -0.19100
C3521       C  0.93240810  0.03421771  0.17367488    -0.18200
C3522       C  0.93054943  0.02685071  0.15281564     0.05800
C3523       C  0.92462995  0.01759144  0.12933676     0.07700
C3524       C  0.91626614  0.00935716  0.11047687    -0.19100
C3525       C  0.93550828  0.02861277  0.95614875    -0.18200
C3526       C  0.94427474  0.04827478  0.95023798     0.05800
C3527       C  0.95044564  0.07350654  0.94708672     0.07700
C3528       C  0.95417803  0.09550603  0.94560000    -0.19100
C3529       C  0.76761026  0.09369513  0.96703361    -0.18200
C3530       C  0.78050349  0.08236023  0.95284257     0.05800
C3531       C  0.80136386  0.07021521  0.94318868     0.07700
C3532       C  0.82022385  0.05872433  0.94572002    -0.19100
C3533       C  0.92206694  0.86087037  0.13755422    -0.18200
C3534       C  0.90640210  0.87028763  0.12464735     0.05800
C3535       C  0.88907297  0.88220583  0.10902798     0.07700
C3536       C  0.87679606  0.89423204  0.09471340    -0.19100
C3537       C  0.87045794  0.81284825  0.18969927    -0.18200
C3538       C  0.84946923  0.81597905  0.18294817     0.05800
C3539       C  0.82468565  0.82308918  0.17972151     0.07700
C3540       C  0.80563717  0.83353808  0.18436389    -0.19100
C3541       C  0.75064660  0.97850903  0.16710223    -0.18200
C3542       C  0.75298398  0.98096428  0.14450034     0.05800
C3543       C  0.75873080  0.97892785  0.11820529     0.07700
C3544       C  0.76727534  0.97615927  0.09718918    -0.19100
C3545       C  0.85663935  0.02279469  0.22368321    -0.18200
C3546       C  0.84966347  0.00770419  0.20875321     0.05800
C3547       C  0.84283049  0.98468758  0.19843159     0.07700
C3548       C  0.83514311  0.96374077  0.19864691    -0.19100
C3549       C  0.59891436  0.97293094  0.59530251    -0.18200
C3550       C  0.58970142  0.96948396  0.61517862     0.05800
C3551       C  0.58411264  0.96510435  0.64008841     0.07700
C3552       C  0.58160355  0.96049156  0.66165793    -0.19100
C3553       C  0.74185412  0.98122776  0.34603540    -0.18200
C3554       C  0.74391635  0.98831473  0.36772723     0.05800
C3555       C  0.74528845  0.99300341  0.39436573     0.07700
C3556       C  0.74262000  0.99528866  0.41700788    -0.19100
C3557       C  0.64897804  0.06646637  0.59289888    -0.18200
C3558       C  0.63542787  0.08063833  0.60353500     0.05800
C3559       C  0.61677044  0.09660064  0.61243517     0.07700
C3560       C  0.60062862  0.10996154  0.62014183    -0.19100
C3561       C  0.65538912  0.16546230  0.68655691    -0.18200
C3562       C  0.67739141  0.16197201  0.68700538     0.05800
C3563       C  0.70260368  0.15622006  0.69007185     0.07700
C3564       C  0.72211617  0.14769077  0.69656873    -0.19100
C3565       C  0.74371972  0.16566411  0.91809811    -0.18200
C3566       C  0.74897283  0.16117128  0.89672668     0.05800
C3567       C  0.75559931  0.15394807  0.87227887     0.07700
C3568       C  0.76127342  0.14519534  0.85239415    -0.19100
C3569       C  0.79316397  0.97870109  0.92015873    -0.18200
C3570       C  0.79013063  0.98152617  0.89755667     0.05800
C3571       C  0.78992001  0.98677074  0.87088661     0.07700
C3572       C  0.79045492  0.99415509  0.84914110    -0.19100
C3573       C  0.75219640  0.99674685  0.59891411    -0.18200
C3574       C  0.75975233  0.99699085  0.62077355     0.05800
C3575       C  0.76580397  0.99859284  0.64747293     0.07700
C3576       C  0.76971525  0.00300934  0.66983215    -0.19100
C3577       C  0.87101287  0.09995537  0.82572441    -0.18200
C3578       C  0.88472420  0.11299422  0.83764334     0.05800
C3579       C  0.89815407  0.13088413  0.85127439     0.07700
C3580       C  0.90872906  0.14654074  0.86325999    -0.19100
C3581       C  0.68758408  0.02934078  0.72223656    -0.18200
C3582       C  0.67726900  0.01067850  0.72869745     0.05800
C3583       C  0.66546358  0.99105683  0.74116609     0.07700
C3584       C  0.65165916  0.97750328  0.75221380    -0.19100
C3585       C  0.25177439  0.62239776  0.55377773    -0.18200
C3586       C  0.23714866  0.60912742  0.56392994     0.05800
C3587       C  0.21624227  0.59382421  0.56473806     0.07700
C3588       C  0.20001230  0.58153184  0.55582024    -0.19100
C3589       C  0.35699393  0.60769750  0.42742623    -0.18200
C3590       C  0.36710766  0.59392523  0.41301343     0.05800
C3591       C  0.38023722  0.57944399  0.39561052     0.07700
C3592       C  0.39374573  0.56769879  0.38222168    -0.19100
C3593       C  0.31625967  0.67980425  0.36015599    -0.18200
C3594       C  0.32245593  0.68082495  0.33869677     0.05800
C3595       C  0.33239105  0.68549976  0.31493395     0.07700
C3596       C  0.34355853  0.69315500  0.29714918    -0.19100
C3597       C  0.27453845  0.70528462  0.58816462    -0.18200
C3598       C  0.27067684  0.69848058  0.60898034     0.05800
C3599       C  0.26695365  0.68514854  0.63097534     0.07700
C3600       C  0.26413754  0.67099492  0.64790428    -0.19100
C3601       C  0.46820492  0.68540748  0.32114299    -0.18200
C3602       C  0.48739679  0.67991122  0.33105564     0.05800
C3603       C  0.50975666  0.68500057  0.34338290     0.07700
C3604       C  0.52389004  0.69725796  0.35547737    -0.19100
C3605       C  0.63049877  0.82474738  0.36198563    -0.18200
C3606       C  0.64213820  0.83872884  0.34905344     0.05800
C3607       C  0.65548500  0.85581771  0.33448579     0.07700
C3608       C  0.66818764  0.86929895  0.32203684    -0.19100
C3609       C  0.38226393  0.75991269  0.46751361    -0.18200
C3610       C  0.40429039  0.76380441  0.47265078     0.05800
C3611       C  0.43097448  0.76492648  0.47750086     0.07700
C3612       C  0.45384800  0.76409041  0.47926621    -0.19100
C3613       C  0.53858555  0.65940560  0.43885400    -0.18200
C3614       C  0.53219727  0.63877205  0.43381473     0.05800
C3615       C  0.52274411  0.61649743  0.42459139     0.07700
C3616       C  0.51398352  0.59860521  0.41482049    -0.19100
C3617       C  0.57325870  0.88901293  0.42437834    -0.18200
C3618       C  0.57745107  0.91098706  0.42399982     0.05800
C3619       C  0.58496097  0.93585950  0.42724912     0.07700
C3620       C  0.59494255  0.95433806  0.43488601    -0.19100
C3621       C  0.87168802  0.89249561  0.56955442    -0.18200
C3622       C  0.88050350  0.90359954  0.58686062     0.05800
C3623       C  0.89088255  0.91526610  0.60789869     0.07700
C3624       C  0.90190248  0.92550501  0.62444602    -0.19100
C3625       C  0.71245209  0.92274411  0.42747732    -0.18200
C3626       C  0.73180549  0.91433063  0.42042735     0.05800
C3627       C  0.75528172  0.90401181  0.42454082     0.07700
C3628       C  0.77026058  0.89330952  0.43702374    -0.19100
C3629       C  0.70278883  0.76997187  0.51583141    -0.18200
C3630       C  0.68015236  0.77039478  0.51765833     0.05800
C3631       C  0.65372559  0.77448948  0.51690204     0.07700
C3632       C  0.63209740  0.77965635  0.51229020    -0.19100
C3633       C  0.82146823  0.82209057  0.63121723    -0.18200
C3634       C  0.82670708  0.81692111  0.65230592     0.05800
C3635       C  0.83521357  0.80712999  0.67500548     0.07700
C3636       C  0.84504031  0.79605925  0.69173829    -0.19100
C3637       C  0.78172158  0.79788645  0.40247914    -0.18200
C3638       C  0.77666744  0.80223041  0.38116733     0.05800
C3639       C  0.77112841  0.81313773  0.35806434     0.07700
C3640       C  0.76720975  0.82586315  0.34011846    -0.19100
C3641       C  0.12919778  0.67713105  0.62037123    -0.18200
C3642       C  0.14116494  0.66256422  0.63239468     0.05800
C3643       C  0.15503692  0.64529512  0.64634110     0.07700
C3644       C  0.16771257  0.63180950  0.65888135    -0.19100
C3645       C  0.01960729  0.79962065  0.63764475    -0.18200
C3646       C  0.00451578  0.80992376  0.65031265     0.05800
C3647       C  0.98186542  0.81292725  0.66261816     0.07700
C3648       C  0.96339524  0.80564320  0.67258064    -0.19100
C3649       C  0.95077392  0.73561020  0.51118220    -0.18200
C3650       C  0.92814731  0.73431917  0.51287579     0.05800
C3651       C  0.90196019  0.73583999  0.51823699     0.07700
C3652       C  0.88064218  0.74109174  0.52408846    -0.19100
C3653       C  0.12873859  0.73269831  0.47610068    -0.18200
C3654       C  0.15021462  0.73924194  0.47189219     0.05800
C3655       C  0.17655914  0.74500659  0.47137973     0.07700
C3656       C  0.19923619  0.74681158  0.47355329    -0.19100
C3657       C  0.08535729  0.55033981  0.54763742    -0.18200
C3658       C  0.07579692  0.56873603  0.55595643     0.05800
C3659       C  0.06910314  0.59364065  0.56036182     0.07700
C3660       C  0.06582900  0.61575807  0.56083455    -0.19100
C3661       C  0.01059769  0.90107528  0.58863397    -0.18200
C3662       C  0.01912720  0.88482693  0.57589857     0.05800
C3663       C  0.02982960  0.86469230  0.56311466     0.07700
C3664       C  0.03775638  0.84553229  0.55481626    -0.19100
C3665       C  0.71141809  0.33109341  0.52295388    -0.18200
C3666       C  0.73147051  0.34071611  0.52403001     0.05800
C3667       C  0.75014902  0.35862276  0.52192937     0.07700
C3668       C  0.75746638  0.37794937  0.51382865    -0.19100
C3669       C  0.62873764  0.34765714  0.34265487    -0.18200
C3670       C  0.64061219  0.36293709  0.35397411     0.05800
C3671       C  0.65604363  0.38004241  0.36662011     0.07700
C3672       C  0.66914279  0.39411121  0.37816235    -0.19100
C3673       C  0.80736343  0.42476654  0.45999939    -0.18200
C3674       C  0.80100027  0.40345175  0.45799830     0.05800
C3675       C  0.78963377  0.38025355  0.45405049     0.07700
C3676       C  0.77973952  0.36035511  0.45177587    -0.19100
C3677       C  0.54511362  0.44486871  0.42241643    -0.18200
C3678       C  0.56535022  0.44137338  0.43088933     0.05800
C3679       C  0.59075095  0.44460986  0.43528323     0.07700
C3680       C  0.61207079  0.45073890  0.43706512    -0.19100
C3681       C  0.60593515  0.50150733  0.24299387    -0.18200
C3682       C  0.59466517  0.48930536  0.25794187     0.05800
C3683       C  0.58503744  0.47722384  0.27906518     0.07700
C3684       C  0.57634844  0.47144337  0.29881687    -0.19100
C3685       C  0.63072769  0.66063127  0.07417336    -0.18200
C3686       C  0.63438968  0.64440203  0.08911007     0.05800
C3687       C  0.63901522  0.62488677  0.10593051     0.07700
C3688       C  0.64498941  0.60851992  0.11993830    -0.19100
C3689       C  0.73631545  0.52567499  0.35935840    -0.18200
C3690       C  0.74328803  0.52679476  0.33776354     0.05800
C3691       C  0.74926452  0.52454293  0.31176730     0.07700
C3692       C  0.75030650  0.52136413  0.28929927    -0.19100
C3693       C  0.75184737  0.64000889  0.17216595    -0.18200
C3694       C  0.76715433  0.65495008  0.16573833     0.05800
C3695       C  0.78619003  0.66909477  0.15475217     0.07700
C3696       C  0.80203013  0.67854167  0.14216591    -0.19100
C3697       C  0.67642301  0.42539304  0.21478064    -0.18200
C3698       C  0.67282426  0.40434885  0.22099422     0.05800
C3699       C  0.66655117  0.38040115  0.22884997     0.07700
C3700       C  0.65856041  0.36081029  0.23565969    -0.19100
C3701       C  0.80936231  0.34293450  0.55283122    -0.18200
C3702       C  0.81052965  0.35673675  0.57031442     0.05800
C3703       C  0.81439132  0.37432910  0.58920056     0.07700
C3704       C  0.81616838  0.39038560  0.60457712    -0.19100
C3705       C  0.88552038  0.48428281  0.72819485    -0.18200
C3706       C  0.89738331  0.49898035  0.74012853     0.05800
C3707       C  0.91051300  0.51302550  0.75782480     0.07700
C3708       C  0.92367037  0.51814511  0.77509439    -0.19100
C3709       C  0.72475953  0.51498678  0.60972057    -0.18200
C3710       C  0.72507549  0.52318626  0.58858019     0.05800
C3711       C  0.72878979  0.52810755  0.56260246     0.07700
C3712       C  0.73336310  0.52731875  0.54040724    -0.19100
C3713       C  0.66777897  0.34520939  0.61702140    -0.18200
C3714       C  0.68359073  0.35489429  0.62952183     0.05800
C3715       C  0.70263434  0.36833194  0.64145462     0.07700
C3716       C  0.71841161  0.38177290  0.64985565    -0.19100
C3717       C  0.84039988  0.56611740  0.72015928    -0.18200
C3718       C  0.84425744  0.58747921  0.72489885     0.05800
C3719       C  0.84829711  0.61296960  0.72768006     0.07700
C3720       C  0.85484940  0.63415282  0.72900722    -0.19100
C3721       C  0.84224648  0.61609799  0.86663434    -0.18200
C3722       C  0.85625550  0.62585648  0.85224831     0.05800
C3723       C  0.87240666  0.63752482  0.83535095     0.07700
C3724       C  0.88488587  0.64945724  0.82120937    -0.19100
C3725       C  0.74077537  0.64833877  0.99319832    -0.18200
C3726       C  0.73812217  0.66643789  0.00594327     0.05800
C3727       C  0.74431437  0.68603423  0.02189961     0.07700
C3728       C  0.75946467  0.69763145  0.03330873    -0.19100
C3729       C  0.76757589  0.50210580  0.03892981    -0.18200
C3730       C  0.77040259  0.50231190  0.06149832     0.05800
C3731       C  0.77196304  0.50718363  0.08781254     0.07700
C3732       C  0.76999493  0.51395470  0.10943137    -0.19100
C3733       C  0.74933583  0.49188052  0.78731435    -0.18200
C3734       C  0.74949805  0.48947348  0.80994710     0.05800
C3735       C  0.75453114  0.48693666  0.83618579     0.07700
C3736       C  0.76164490  0.48756934  0.85779786    -0.19100
C3737       C  0.64526385  0.63283310  0.97455328    -0.18200
C3738       C  0.64725706  0.61085795  0.97233846     0.05800
C3739       C  0.65347027  0.58636228  0.96693368     0.07700
C3740       C  0.66722022  0.57019896  0.96069294    -0.19100
C3741       C  0.89402042  0.54651994  0.92308663    -0.18200
C3742       C  0.91549702  0.54635394  0.91708270     0.05800
C3743       C  0.93962354  0.54384720  0.90752473     0.07700
C3744       C  0.95809604  0.53790624  0.89657020    -0.19100
loop_ 
_geom_bond_atom_site_label_1 
_geom_bond_atom_site_label_2 
_geom_bond_distance 
_geom_bond_site_symmetry_2 
_ccdc_geom_bond_type 
Zr1           O2   2.444   1_556  S
Zr1           O3   2.406       .  S
Zr1           O4   2.430       .  S
Zr1           O7   2.419   1_556  S
Zr1           O9   2.378       .  S
Zr1          O10   2.399       .  S
Zr1          O11   2.416       .  S
Zr1          O12   2.372       .  S
O2           H58   0.991       .  S
O2           H66   0.990       .  S
O3           C23   1.274       .  A
O4           C25   1.280       .  A
O5          Zr15   2.546       .  S
O5           C24   1.306   1_556  A
O6          Zr14   2.422       .  S
O6           C25   1.281       .  A
O7           C24   1.280       .  A
O8          Zr16   2.409       .  S
O8           C23   1.277       .  A
O9          Zr14   2.395       .  S
O9          Zr16   2.358       .  S
O10         Zr15   2.412       .  S
O10         Zr16   2.417       .  S
O10          H45   0.966       .  S
O11         Zr14   2.404       .  S
O11         Zr31   2.411       .  S
O11          H48   0.964       .  S
O12         Zr15   2.367       .  S
O12         Zr31   2.361       .  S
Zr13         O38   2.444       .  S
Zr13         O32   2.436       .  S
Zr13         O40   2.442       .  S
Zr13         O28   2.413       .  S
Zr13         O19   2.349       .  S
Zr13         O20   2.424       .  S
Zr13         O21   2.375       .  S
Zr13         O22   2.391       .  S
Zr14         O33   2.437       .  S
Zr14         O26   2.435       .  S
Zr14         O27   2.438       .  S
Zr14         O20   2.396       .  S
Zr14         O21   2.386       .  S
Zr15         O17   2.435       .  S
Zr15         O39   2.436       .  S
Zr15         O41   2.550       .  S
Zr15         O19   2.332       .  S
Zr15         O22   2.417       .  S
Zr16         O42   2.434       .  S
Zr16         O43   2.436       .  S
Zr16         O18   2.438       .  S
Zr16         O19   2.349       .  S
Zr16         O20   2.422       .  S
O17          H54   0.990       .  S
O18          H49   0.990       .  S
O18          H63   0.990       .  S
O20          H46   0.966       .  S
O21         Zr31   2.369       .  S
O22         Zr31   2.409       .  S
O22          H47   0.964       .  S
C23        C3740   1.412       .  S
C24        C3729   1.464       .  S
C25        C3725   1.430       .  S
O26          H62   0.990       .  S
O27          C29   1.284       .  A
O28          C29   1.278       .  A
C29        C3721   1.431       .  S
O30         Zr31   2.436   1_554  S
O30          H59   0.991       .  S
Zr31         O34   2.435       .  S
Zr31         O35   2.436       .  S
Zr31         O36   2.404       .  S
O32          C37   1.281       .  A
O33          H50   0.989       .  S
O33          H65   0.991       .  S
O34          H51   0.990       .  S
O35          H55   0.990       .  S
O35          H64   0.990       .  S
O36          C37   1.275       .  A
C37        C3741   1.428       .  S
O38          H57   0.990       .  S
O38          H61   0.990       .  S
O39          H53   0.989       .  S
O39          H60   0.990       .  S
O40          C44   1.284       .  A
O41          C44   1.308       .  A
O42          H52   0.989       .  S
O43          H56   0.990       .  S
C44        C3736   1.465       .  S
Zr67         O68   2.441       .  S
Zr67         O69   2.420       .  S
Zr67         O70   2.405       .  S
Zr67         O73   2.417       .  S
Zr67         O75   2.370       .  S
Zr67         O76   2.393       .  S
Zr67         O77   2.410       .  S
Zr67         O78   2.370       .  S
O68         H124   0.990       .  S
O68         H132   0.990       .  S
O69          C89   1.280       .  A
O70          C91   1.276       .  A
O71         Zr81   2.528       .  S
O71          C90   1.302       .  A
O72         Zr80   2.437       .  S
O72          C91   1.284       .  A
O73          C90   1.279       .  A
O74         Zr82   2.435       .  S
O74          C89   1.282       .  A
O75         Zr80   2.396       .  S
O75         Zr82   2.362       .  S
O76         Zr81   2.405       .  S
O76         Zr82   2.393       .  S
O76         H111   0.968       .  S
O77         Zr80   2.406       .  S
O77         Zr97   2.415       .  S
O77         H114   0.965       .  S
O78         Zr81   2.377       .  S
O78         Zr97   2.348       .  S
Zr79        O104   2.442       .  S
Zr79         O98   2.431       .  S
Zr79        O106   2.404       .  S
Zr79         O94   2.411       .  S
Zr79         O85   2.389       .  S
Zr79         O86   2.424       .  S
Zr79         O87   2.379       .  S
Zr79         O88   2.392       .  S
Zr80         O99   2.437       .  S
Zr80         O92   2.436       .  S
Zr80         O93   2.446       .  S
Zr80         O86   2.413       .  S
Zr80         O87   2.395       .  S
Zr81         O83   2.437       .  S
Zr81        O105   2.435       .  S
Zr81        O107   2.545       .  S
Zr81         O85   2.378       .  S
Zr81         O88   2.399       .  S
Zr82        O108   2.434       .  S
Zr82        O109   2.436       .  S
Zr82         O84   2.438       .  S
Zr82         O85   2.380       .  S
Zr82         O86   2.416       .  S
O83         H120   0.991       .  S
O84         H115   0.990       .  S
O84         H129   0.990       .  S
O86         H112   0.969       .  S
O87         Zr97   2.348       .  S
O88         Zr97   2.407       .  S
O88         H113   0.968       .  S
C89        C3716   1.434       .  S
C90        C3709   1.459       .  S
C91        C3704   1.426       .  S
O92         H128   0.990       .  S
O93          C95   1.279       .  A
O94          C95   1.268       .  A
C95        C3705   1.431       .  S
O96         Zr97   2.435       .  S
O96         H125   0.990       .  S
Zr97        O100   2.435       .  S
Zr97        O101   2.436       .  S
Zr97        O102   2.402       .  S
O98         C103   1.280       .  A
O99         H116   0.990       .  S
O99         H131   0.991       .  S
O100        H117   0.990       .  S
O101        H121   0.990       .  S
O101        H130   0.990       .  S
O102        C103   1.276       .  A
C103       C3717   1.420       .  S
O104        H123   0.990       .  S
O104        H127   0.991       .  S
O105        H119   0.990       .  S
O105        H126   0.991       .  S
O106        C110   1.277       .  A
O107        C110   1.307       .  A
O108        H118   0.990       .  S
O109        H122   0.990       .  S
C110       C3733   1.465       .  S
Zr133       O134   2.444       .  S
Zr133       O135   2.426       .  S
Zr133       O136   2.403       .  S
Zr133       O139   2.408       .  S
Zr133       O141   2.376       .  S
Zr133       O142   2.386       .  S
Zr133       O143   2.412       .  S
Zr133       O144   2.375       .  S
O134        H190   0.990       .  S
O134        H198   0.991       .  S
O135        C155   1.279       .  A
O136        C157   1.272       .  A
O137       Zr147   2.536       .  S
O137        C156   1.305       .  A
O138       Zr146   2.450       .  S
O138        C157   1.284       .  A
O139        C156   1.277       .  A
O140       Zr148   2.409       .  S
O140        C155   1.277       .  A
O141       Zr146   2.391       .  S
O141       Zr148   2.362       .  S
O142       Zr147   2.397       .  S
O142       Zr148   2.404       .  S
O142        H177   0.963       .  S
O143       Zr146   2.397       .  S
O143       Zr163   2.414       .  S
O143        H180   0.971       .  S
O144       Zr147   2.374       .  S
O144       Zr163   2.373       .  S
Zr145       O170   2.442       .  S
Zr145       O164   2.437       .  S
Zr145       O172   2.433       .  S
Zr145       O160   2.426       .  S
Zr145       O151   2.372       .  S
Zr145       O152   2.424       .  S
Zr145       O153   2.374       .  S
Zr145       O154   2.393       .  S
Zr146       O165   2.435       .  S
Zr146       O158   2.435       .  S
Zr146       O159   2.429       .  S
Zr146       O152   2.405       .  S
Zr146       O153   2.407       .  S
Zr147       O149   2.437       .  S
Zr147       O171   2.437       .  S
Zr147       O173   2.539       .  S
Zr147       O151   2.363       .  S
Zr147       O154   2.404       .  S
Zr148       O174   2.436       .  S
Zr148       O175   2.438       .  S
Zr148       O150   2.438       .  S
Zr148       O151   2.356       .  S
Zr148       O152   2.420       .  S
O149        H186   0.991       .  S
O150        H181   0.990       .  S
O150        H195   0.989       .  S
O152        H178   0.968       .  S
O153       Zr163   2.367       .  S
O154       Zr163   2.407       .  S
O154        H179   0.968       .  S
C155       C3697   1.423       .  S
C156       C3692   1.460       .  S
C157       C3681   1.431       .  S
O158        H194   0.990       .  S
O159        C161   1.282       .  A
O160        C161   1.280       .  A
C161       C3688   1.433       .  S
O162       Zr163   2.436       .  S
O162        H191   0.990       .  S
Zr163       O166   2.436       .  S
Zr163       O167   2.438       .  S
Zr163       O168   2.425       .  S
O164        C169   1.282       .  A
O165        H182   0.989       .  S
O165        H197   0.990       .  S
O166        H183   0.990       .  S
O167        H187   0.991       .  S
O167        H196   0.990       .  S
O168        C169   1.279       .  A
C169       C3693   1.432       .  S
O170        H189   0.990       .  S
O170        H193   0.991       .  S
O171        H185   0.990       .  S
O171        H192   0.989       .  S
O172        C176   1.283       .  A
O173        C176   1.306       .  A
O174        H184   0.989       .  S
O175        H188   0.990       .  S
C176       C3732   1.464       .  S
Zr199       O200   2.436       .  S
Zr199       O201   2.453       .  S
Zr199       O202   2.428       .  S
Zr199       O205   2.420       .  S
Zr199       O207   2.357       .  S
Zr199       O208   2.393       .  S
Zr199       O209   2.414       .  S
Zr199       O210   2.281       .  S
O200        H256   0.991       .  S
O200        H264   0.991       .  S
O201        C221   1.285       .  A
O202        C223   1.282       .  A
O203       Zr213   2.528       .  S
O203        C222   1.304       .  A
O204       Zr212   2.439       .  S
O204        C223   1.283       .  A
O205        C222   1.283       .  A
O206       Zr214   2.387       .  S
O206        C221   1.272       .  A
O207       Zr212   2.360       .  S
O207       Zr214   2.371       .  S
O208       Zr213   2.414       .  S
O208       Zr214   2.409       .  S
O208        H243   0.972       .  S
O209       Zr212   2.401       .  S
O209       Zr229   2.433       .  S
O209        H246   0.967       .  S
O210       Zr213   2.254       .  S
O210       Zr229   2.286       .  S
Zr211       O236   2.446       .  S
Zr211       O230   2.425       .  S
Zr211       O238   2.441       .  S
Zr211       O226   2.437       .  S
Zr211       O217   2.374       .  S
Zr211       O218   2.423       .  S
Zr211       O219   2.388       .  S
Zr211       O220   2.417       .  S
Zr212       O231   2.431       .  S
Zr212       O224   2.438       .  S
Zr212       O225   2.402       .  S
Zr212       O218   2.411       .  S
Zr212       O219   2.380       .  S
Zr213       O215   2.435       .  S
Zr213       O237   2.435       .  S
Zr213       O239   2.537       .  S
Zr213       O217   2.358       .  S
Zr213       O220   2.413       .  S
Zr214       O240   2.436       .  S
Zr214       O241   2.437       .  S
Zr214       O216   2.437       .  S
Zr214       O217   2.347       .  S
Zr214       O218   2.410       .  S
O215        H252   0.990       .  S
O216        H247   0.991       .  S
O216        H261   0.990       .  S
O218        H244   0.969       .  S
O219       Zr229   2.382       .  S
O220       Zr229   2.411       .  S
O220        H245   0.973       .  S
C221       C3680   1.424       .  S
C222       C3689   1.464       .  S
C223       C3672   1.439       .  S
O224        H260   0.990       .  S
O225        C227   1.279       .  A
O226        C227   1.281       .  A
C227       C3668   1.422       .  S
O228       Zr229   2.438       .  S
O228        H257   0.989       .  S
Zr229       O232   2.438       .  S
Zr229       O233   2.444       .  S
Zr229       O234   2.430       .  S
O230        C235   1.271       .  A
O231        H248   0.990       .  S
O231        H263   0.989       .  S
O232        H249   0.989       .  S
O233        H253   0.989       .  S
O233        H262   0.991       .  S
O234        C235   1.268       .  A
C235       C3673   1.433       .  S
O236        H255   0.991       .  S
O236        H259   0.991       .  S
O237        H251   0.990       .  S
O237        H258   0.990       .  S
O238        C242   1.285       .  A
O239        C242   1.305       .  A
O240        H250   0.990       .  S
O241        H254   0.991       .  S
C242       C3712   1.458       .  S
Zr265       O266   2.442       .  S
Zr265       O267   2.455       .  S
Zr265       O268   2.429       .  S
Zr265       O271   2.425       .  S
Zr265       O273   2.360       .  S
Zr265       O274   2.394       .  S
Zr265       O275   2.418       .  S
Zr265       O276   2.277       .  S
O266        H322   0.991       .  S
O266        H330   0.991       .  S
O267        C287   1.286       .  A
O268        C289   1.280       .  A
O269       Zr279   2.541       .  S
O269        C288   1.306       .  A
O270       Zr278   2.426       .  S
O270        C289   1.281       .  A
O271        C288   1.281       .  A
O272       Zr280   2.401       .  S
O272        C287   1.275       .  A
O273       Zr278   2.390       .  S
O273       Zr280   2.363       .  S
O274       Zr279   2.417       .  S
O274       Zr280   2.423       .  S
O274        H309   0.971       .  S
O275       Zr278   2.405       .  S
O275       Zr295   2.432       .  S
O275        H312   0.967       .  S
O276       Zr279   2.257       .  S
O276       Zr295   2.290       .  S
Zr277       O302   2.441   1_455  S
Zr277       O296   2.404       .  S
Zr277       O304   2.424   1_455  S
Zr277       O292   2.413       .  S
Zr277       O283   2.372       .  S
Zr277       O284   2.404       .  S
Zr277       O285   2.378       .  S
Zr277       O286   2.390       .  S
Zr278       O297   2.438       .  S
Zr278       O290   2.435       .  S
Zr278       O291   2.422       .  S
Zr278       O284   2.407       .  S
Zr278       O285   2.394       .  S
Zr279       O281   2.437       .  S
Zr279       O303   2.435       .  S
Zr279       O305   2.537   1_455  S
Zr279       O283   2.368       .  S
Zr279       O286   2.397       .  S
Zr280       O306   2.436   1_455  S
Zr280       O307   2.436   1_455  S
Zr280       O282   2.440       .  S
Zr280       O283   2.368       .  S
Zr280       O284   2.405       .  S
O281        H318   0.989       .  S
O282        H313   0.989       .  S
O282        H327   0.990       .  S
O284        H310   0.965       .  S
O285       Zr295   2.352       .  S
O286       Zr295   2.402       .  S
O286        H311   0.968       .  S
C287       C3660   1.435       .  S
C288       C3653   1.473       .  S
C289       C3641   1.433       .  S
O290        H326   0.990       .  S
O291        C293   1.281       .  A
O292        C293   1.278       .  A
C293       C3645   1.423       .  S
O294       Zr295   2.434       .  S
O294        H323   0.990       .  S
Zr295       O298   2.435       .  S
Zr295       O299   2.439       .  S
Zr295       O300   2.443       .  S
O296        C301   1.273       .  A
O297        H314   0.990       .  S
O297        H329   0.990       .  S
O298        H315   0.989       .  S
O299        H319   0.991       .  S
O299        H328   0.989       .  S
O300        C301   1.282       .  A
C301       C3664   1.430       .  S
O302        H321   0.990       .  S
O302        H325   0.991       .  S
O303        H317   0.991       .  S
O303        H324   0.990       .  S
O304        C308   1.281       .  A
O305        C308   1.304       .  A
O306        H316   0.990   1_655  S
O307        H320   0.990       .  S
C308       C3649   1.464       .  S
Zr331       O332   2.441       .  S
Zr331       O333   2.428       .  S
Zr331       O334   2.429       .  S
Zr331       O337   2.430       .  S
Zr331       O339   2.368       .  S
Zr331       O340   2.401       .  S
Zr331       O341   2.413       .  S
Zr331       O342   2.357       .  S
O332        H388   0.990       .  S
O332        H396   0.991       .  S
O333        C353   1.282       .  A
O334        C355   1.279       .  A
O335       Zr345   2.538       .  S
O335        C354   1.306       .  A
O336       Zr344   2.435       .  S
O336        C355   1.282       .  A
O337        C354   1.282       .  A
O338       Zr346   2.427       .  S
O338        C353   1.281       .  A
O339       Zr344   2.384       .  S
O339       Zr346   2.362       .  S
O340       Zr345   2.407       .  S
O340       Zr346   2.410       .  S
O340        H375   0.965       .  S
O341       Zr344   2.399       .  S
O341       Zr361   2.434       .  S
O341        H378   0.966       .  S
O342       Zr345   2.348       .  S
O342       Zr361   2.344       .  S
Zr343       O368   2.440       .  S
Zr343       O362   2.425       .  S
Zr343       O370   2.420       .  S
Zr343       O358   2.422       .  S
Zr343       O349   2.384       .  S
Zr343       O350   2.414       .  S
Zr343       O351   2.362       .  S
Zr343       O352   2.384       .  S
Zr344       O363   2.437       .  S
Zr344       O356   2.438       .  S
Zr344       O357   2.425       .  S
Zr344       O350   2.404       .  S
Zr344       O351   2.389       .  S
Zr345       O347   2.435       .  S
Zr345       O369   2.437       .  S
Zr345       O371   2.527       .  S
Zr345       O349   2.374       .  S
Zr345       O352   2.407       .  S
Zr346       O372   2.434       .  S
Zr346       O373   2.440       .  S
Zr346       O348   2.439       .  S
Zr346       O349   2.372       .  S
Zr346       O350   2.419       .  S
O347        H384   0.990       .  S
O348        H379   0.990       .  S
O348        H393   0.990       .  S
O350        H376   0.967       .  S
O351       Zr361   2.346       .  S
O352       Zr361   2.405       .  S
O352        H377   0.968       .  S
C353       C3633   1.431       .  S
C354       C3652   1.461       .  S
C355       C3621   1.433       .  S
O356        H392   0.990       .  S
O357        C359   1.282       .  A
O358        C359   1.280       .  A
C359       C3628   1.424       .  S
O360       Zr361   2.435       .  S
O360        H389   0.990       .  S
Zr361       O364   2.439       .  S
Zr361       O365   2.438       .  S
Zr361       O366   2.426       .  S
O362        C367   1.280       .  A
O363        H380   0.990       .  S
O363        H395   0.990       .  S
O364        H381   0.990       .  S
O365        H385   0.990       .  S
O365        H394   0.991       .  S
O366        C367   1.280       .  A
C367       C3637   1.430       .  S
O368        H387   0.990       .  S
O368        H391   0.991       .  S
O369        H383   0.990       .  S
O369        H390   0.990       .  S
O370        C374   1.281       .  A
O371        C374   1.303       .  A
O372        H382   0.990       .  S
O373        H386   0.991       .  S
C374       C3629   1.463       .  S
Zr397       O398   2.446       .  S
Zr397       O399   2.441       .  S
Zr397       O400   2.434       .  S
Zr397       O403   2.435       .  S
Zr397       O405   2.366       .  S
Zr397       O406   2.396       .  S
Zr397       O407   2.417       .  S
Zr397       O408   2.365       .  S
O398        H454   0.990       .  S
O398        H462   0.990       .  S
O399        C419   1.284       .  A
O400        C421   1.281       .  A
O401       Zr411   2.532       .  S
O401        C420   1.305       .  A
O402       Zr410   2.415       .  S
O402        C421   1.279       .  A
O403        C420   1.283       .  A
O404       Zr412   2.415       .  S
O404        C419   1.278       .  A
O405       Zr410   2.395       .  S
O405       Zr412   2.372       .  S
O406       Zr411   2.421       .  S
O406       Zr412   2.401       .  S
O406        H441   0.971       .  S
O407       Zr410   2.404       .  S
O407       Zr427   2.424       .  S
O407        H444   0.970       .  S
O408       Zr411   2.358       .  S
O408       Zr427   2.344       .  S
Zr409       O434   2.441       .  S
Zr409       O428   2.404       .  S
Zr409       O436   2.414       .  S
Zr409       O424   2.401       .  S
Zr409       O415   2.375       .  S
Zr409       O416   2.405       .  S
Zr409       O417   2.370       .  S
Zr409       O418   2.389       .  S
Zr410       O429   2.436       .  S
Zr410       O422   2.437       .  S
Zr410       O423   2.455       .  S
Zr410       O416   2.398       .  S
Zr410       O417   2.371       .  S
Zr411       O413   2.437       .  S
Zr411       O435   2.434       .  S
Zr411       O437   2.566       .  S
Zr411       O415   2.362       .  S
Zr411       O418   2.400       .  S
Zr412       O438   2.440       .  S
Zr412       O439   2.436       .  S
Zr412       O414   2.438       .  S
Zr412       O415   2.367       .  S
Zr412       O416   2.421       .  S
O413        H450   0.991       .  S
O414        H445   0.990       .  S
O414        H459   0.990       .  S
O416        H442   0.973       .  S
O417       Zr427   2.348       .  S
O418       Zr427   2.411       .  S
O418        H443   0.971       .  S
C419       C3617   1.436       .  S
C420       C3632   1.460       .  S
C421       C3605   1.431       .  S
O422        H458   0.989       .  S
O423        C425   1.287       .  A
O424        C425   1.277       .  A
C425       C3604   1.427       .  S
O426       Zr427   2.436       .  S
O426        H455   0.990       .  S
Zr427       O430   2.436       .  S
Zr427       O431   2.437       .  S
Zr427       O432   2.421       .  S
O428        C433   1.279       .  A
O429        H446   0.990       .  S
O429        H461   0.990       .  S
O430        H447   0.991       .  S
O431        H451   0.989       .  S
O431        H460   0.990       .  S
O432        C433   1.280       .  A
C433       C3613   1.417       .  S
O434        H453   0.991       .  S
O434        H457   0.990       .  S
O435        H449   0.989       .  S
O435        H456   0.990       .  S
O436        C440   1.280       .  A
O437        C440   1.311       .  A
O438        H448   0.990       .  S
O439        H452   0.990       .  S
C440       C3612   1.483       .  S
Zr463       O464   2.442       .  S
Zr463       O465   2.415       .  S
Zr463       O466   2.422       .  S
Zr463       O469   2.409       .  S
Zr463       O471   2.362       .  S
Zr463       O472   2.390       .  S
Zr463       O473   2.408       .  S
Zr463       O474   2.385       .  S
O464        H520   0.991       .  S
O464        H528   0.990       .  S
O465        C485   1.279       .  A
O466        C487   1.280       .  A
O467       Zr477   2.557       .  S
O467        C486   1.309       .  A
O468       Zr476   2.427       .  S
O468        C487   1.282       .  A
O469        C486   1.278       .  A
O470       Zr478   2.417       .  S
O470        C485   1.279       .  A
O471       Zr476   2.374       .  S
O471       Zr478   2.345       .  S
O472       Zr477   2.408       .  S
O472       Zr478   2.404       .  S
O472        H507   0.977       .  S
O473       Zr476   2.397       .  S
O473       Zr493   2.419       .  S
O473        H510   0.965       .  S
O474       Zr477   2.378       .  S
O474       Zr493   2.371       .  S
Zr475       O500   2.440       .  S
Zr475       O494   2.426       .  S
Zr475       O502   2.437       .  S
Zr475       O490   2.435       .  S
Zr475       O481   2.357       .  S
Zr475       O482   2.412       .  S
Zr475       O483   2.368       .  S
Zr475       O484   2.402       .  S
Zr476       O495   2.437       .  S
Zr476       O488   2.435       .  S
Zr476       O489   2.420       .  S
Zr476       O482   2.397       .  S
Zr476       O483   2.387       .  S
Zr477       O479   2.436       .  S
Zr477       O501   2.435       .  S
Zr477       O503   2.578       .  S
Zr477       O481   2.345       .  S
Zr477       O484   2.417       .  S
Zr478       O504   2.435       .  S
Zr478       O505   2.435       .  S
Zr478       O480   2.437       .  S
Zr478       O481   2.340       .  S
Zr478       O482   2.429       .  S
O479        H516   0.990       .  S
O480        H511   0.990       .  S
O480        H525   0.990       .  S
O482        H508   0.968       .  S
O483       Zr493   2.364       .  S
O484       Zr493   2.408       .  S
O484        H509   0.959       .  S
C485       C3597   1.423       .  S
C486       C3656   1.474       .  S
C487       C3585   1.423       .  S
O488        H524   0.990       .  S
O489        C491   1.281       .  A
O490        C491   1.282       .  A
C491       C3589   1.432       .  S
O492       Zr493   2.437       .  S
O492        H521   0.991       .  S
Zr493       O496   2.436       .  S
Zr493       O497   2.437       .  S
Zr493       O498   2.428       .  S
O494        C499   1.281       .  A
O495        H512   0.990       .  S
O495        H527   0.989       .  S
O496        H513   0.990       .  S
O497        H517   0.990       .  S
O497        H526   0.990       .  S
O498        C499   1.280       .  A
C499       C3593   1.434       .  S
O500        H519   0.990       .  S
O500        H523   0.990       .  S
O501        H515   0.990       .  S
O501        H522   0.990       .  S
O502        C506   1.284       .  A
O503        C506   1.315       .  A
O504        H514   0.989       .  S
O505        H518   0.991       .  S
C506       C3609   1.482       .  S
Zr529       O530   2.446       .  S
Zr529       O531   2.428       .  S
Zr529       O532   2.415       .  S
Zr529       O535   2.428       .  S
Zr529       O537   2.396       .  S
Zr529       O538   2.382       .  S
Zr529       O539   2.411       .  S
Zr529       O540   2.393       .  S
O530        H586   0.990       .  S
O530        H594   0.991       .  S
O531        C551   1.280       .  A
O532        C553   1.277       .  A
O533       Zr543   2.446       .  S
O533        C552   1.285       .  A
O534       Zr542   2.558       .  S
O534        C553   1.310       .  A
O535        C552   1.281       .  A
O536       Zr544   2.427       .  S
O536        C551   1.279       .  A
O537       Zr542   2.424       .  S
O537       Zr544   2.389       .  S
O538       Zr543   2.388       .  S
O538       Zr544   2.381       .  S
O538        H573   0.968       .  S
O539       Zr542   2.432       .  S
O539       Zr559   2.382       .  S
O539        H576   0.960       .  S
O540       Zr543   2.400       .  S
O540       Zr559   2.384       .  S
Zr541       O566   2.442       .  S
Zr541       O560   2.435       .  S
Zr541       O568   2.408       .  S
Zr541       O556   2.383       .  S
Zr541       O547   2.401       .  S
Zr541       O548   2.413       .  S
Zr541       O549   2.388       .  S
Zr541       O550   2.389       .  S
Zr542       O561   2.434   1_545  S
Zr542       O554   2.433   1_545  S
Zr542       O555   2.607       .  S
Zr542       O548   2.412       .  S
Zr542       O549   2.382       .  S
Zr543       O545   2.435       .  S
Zr543       O567   2.435       .  S
Zr543       O569   2.443       .  S
Zr543       O547   2.397       .  S
Zr543       O550   2.388       .  S
Zr544       O570   2.439       .  S
Zr544       O571   2.435       .  S
Zr544       O546   2.438       .  S
Zr544       O547   2.406       .  S
Zr544       O548   2.398       .  S
O545        H582   0.990       .  S
O546        H577   0.991       .  S
O546        H591   0.990       .  S
O548        H574   0.964       .  S
O549       Zr559   2.384       .  S
O550       Zr559   2.359       .  S
O550        H575   0.961       .  S
C551       C3577   1.433       .  S
C552       C3568   1.442       .  S
C553       C3572   1.484   1_545  S
O554        H590   0.990       .  S
O555        C557   1.320       .  A
O556        C557   1.272       .  A
C557       C3576   1.495       .  S
O558       Zr559   2.434       .  S
O558        H587   0.990       .  S
Zr559       O562   2.433       .  S
Zr559       O563   2.438       .  S
Zr559       O564   2.411       .  S
O560        C565   1.277       .  A
O561        H578   0.990       .  S
O561        H593   0.990       .  S
O562        H579   0.990       .  S
O563        H583   0.990       .  S
O563        H592   0.990       .  S
O564        C565   1.270       .  A
C565       C3581   1.424       .  S
O566        H585   0.990       .  S
O566        H589   0.991       .  S
O567        H581   0.991       .  S
O567        H588   0.990       .  S
O568        C572   1.279       .  A
O569        C572   1.284       .  A
O570        H580   0.990       .  S
O571        H584   0.991       .  S
C572       C3564   1.422       .  S
Zr595       O596   2.442       .  S
Zr595       O597   2.438   1_565  S
Zr595       O598   2.394       .  S
Zr595       O601   2.401       .  S
Zr595       O603   2.383   1_565  S
Zr595       O604   2.371   1_565  S
Zr595       O605   2.411       .  S
Zr595       O606   2.398       .  S
O596        H652   0.991       .  S
O596        H660   0.991       .  S
O597        C617   1.283       .  A
O598        C619   1.274       .  A
O599       Zr609   2.419       .  S
O599        C618   1.279       .  A
O600       Zr608   2.596       .  S
O600        C619   1.318       .  A
O601        C618   1.278       .  A
O602       Zr610   2.410       .  S
O602        C617   1.278       .  A
O603       Zr608   2.402   1_545  S
O603       Zr610   2.382       .  S
O604       Zr609   2.378   1_545  S
O604       Zr610   2.373       .  S
O604        H639   0.967       .  S
O605       Zr608   2.407       .  S
O605       Zr625   2.401       .  S
O605        H642   0.963       .  S
O606       Zr609   2.398       .  S
O606       Zr625   2.401       .  S
Zr607       O632   2.438   1_565  S
Zr607       O626   2.403       .  S
Zr607       O634   2.439       .  S
Zr607       O622   2.365       .  S
Zr607       O613   2.376   1_565  S
Zr607       O614   2.416   1_565  S
Zr607       O615   2.392       .  S
Zr607       O616   2.375       .  S
Zr608       O627   2.438       .  S
Zr608       O620   2.432   1_565  S
Zr608       O621   2.584       .  S
Zr608       O614   2.423   1_565  S
Zr608       O615   2.383       .  S
Zr609       O611   2.434       .  S
Zr609       O633   2.435   1_565  S
Zr609       O635   2.427       .  S
Zr609       O613   2.397   1_565  S
Zr609       O616   2.385       .  S
Zr610       O636   2.436       .  S
Zr610       O637   2.437       .  S
Zr610       O612   2.440       .  S
Zr610       O613   2.405       .  S
Zr610       O614   2.391       .  S
O611        H648   0.990       .  S
O612        H643   0.991       .  S
O612        H657   0.990       .  S
O614        H640   0.963       .  S
O615       Zr625   2.357       .  S
O616       Zr625   2.360       .  S
O616        H641   0.963       .  S
C617       C3557   1.426       .  S
C618       C3549   1.418       .  S
C619       C3573   1.497       .  S
O620        H656   0.990       .  S
O621        C623   1.317       .  A
O622        C623   1.271       .  A
C623       C3556   1.475       .  S
O624       Zr625   2.437       .  S
O624        H653   0.991       .  S
Zr625       O628   2.438       .  S
Zr625       O629   2.443       .  S
Zr625       O630   2.444       .  S
O626        C631   1.276       .  A
O627        H644   0.990       .  S
O627        H659   0.991       .  S
O628        H645   0.989       .  S
O629        H649   0.990       .  S
O629        H658   0.990       .  S
O630        C631   1.287       .  A
C631       C3625   1.425       .  S
O632        H651   0.991       .  S
O632        H655   0.990       .  S
O633        H647   0.990       .  S
O633        H654   0.991       .  S
O634        C638   1.284       .  A
O635        C638   1.281       .  A
O636        H646   0.989       .  S
O637        H650   0.989       .  S
C638       C3620   1.431       .  S
Zr661       O662   2.442       .  S
Zr661       O663   2.434       .  S
Zr661       O664   2.357       .  S
Zr661       O667   2.416       .  S
Zr661       O669   2.379       .  S
Zr661       O670   2.374       .  S
Zr661       O671   2.415       .  S
Zr661       O672   2.385       .  S
O662        H718   0.991       .  S
O662        H726   0.990       .  S
O663        C683   1.281       .  A
O664        C685   1.268       .  A
O665       Zr675   2.420       .  S
O665        C684   1.280       .  A
O666       Zr674   2.574       .  S
O666        C685   1.313       .  A
O667        C684   1.280       .  A
O668       Zr676   2.417       .  S
O668        C683   1.280       .  A
O669       Zr674   2.384       .  S
O669       Zr676   2.367       .  S
O670       Zr675   2.387       .  S
O670       Zr676   2.367       .  S
O670        H705   0.966       .  S
O671       Zr674   2.415       .  S
O671       Zr691   2.393       .  S
O671        H708   0.966       .  S
O672       Zr675   2.393       .  S
O672       Zr691   2.402       .  S
Zr673       O698   2.443       .  S
Zr673       O692   2.423       .  S
Zr673       O700   2.443       .  S
Zr673       O688   2.417       .  S
Zr673       O679   2.398       .  S
Zr673       O680   2.408       .  S
Zr673       O681   2.398       .  S
Zr673       O682   2.374       .  S
Zr674       O693   2.435       .  S
Zr674       O686   2.433       .  S
Zr674       O687   2.553       .  S
Zr674       O680   2.419       .  S
Zr674       O681   2.416       .  S
Zr675       O677   2.435       .  S
Zr675       O699   2.440       .  S
Zr675       O701   2.413       .  S
Zr675       O679   2.396       .  S
Zr675       O682   2.385       .  S
Zr676       O702   2.435       .  S
Zr676       O703   2.435       .  S
Zr676       O678   2.445       .  S
Zr676       O679   2.403       .  S
Zr676       O680   2.377       .  S
O677        H714   0.990       .  S
O678        H709   0.990       .  S
O678        H723   0.989       .  S
O680        H706   0.955       .  S
O681       Zr691   2.389       .  S
O682       Zr691   2.375       .  S
O682        H707   0.965       .  S
C683       C3548   1.428       .  S
C684       C3540   1.420       .  S
C685       C3541   1.468       .  S
O686        H722   0.990       .  S
O687        C689   1.309       .  A
O688        C689   1.280       .  A
C689       C3553   1.479       .  S
O690       Zr691   2.440       .  S
O690        H719   0.989       .  S
Zr691       O694   2.437       .  S
Zr691       O695   2.437       .  S
Zr691       O696   2.424       .  S
O692        C697   1.280       .  A
O693        H710   0.990       .  S
O693        H725   0.990       .  S
O694        H711   0.990       .  S
O695        H715   0.990       .  S
O695        H724   0.990       .  S
O696        C697   1.280       .  A
C697       C3608   1.430       .  S
O698        H717   0.991       .  S
O698        H721   0.991       .  S
O699        H713   0.990       .  S
O699        H720   0.990       .  S
O700        C704   1.283       .  A
O701        C704   1.278       .  A
O702        H712   0.991       .  S
O703        H716   0.990       .  S
C704       C3640   1.433       .  S
Zr727       O728   2.449       .  S
Zr727       O729   2.439       .  S
Zr727       O730   2.407       .  S
Zr727       O733   2.422       .  S
Zr727       O735   2.390       .  S
Zr727       O736   2.378       .  S
Zr727       O737   2.419       .  S
Zr727       O738   2.399   1_565  S
O728        H784   0.991       .  S
O728        H792   0.990       .  S
O729        C749   1.281       .  A
O730        C751   1.274       .  A
O731       Zr741   2.418       .  S
O731        C750   1.277       .  A
O732       Zr740   2.544       .  S
O732        C751   1.306       .  A
O733        C750   1.280       .  A
O734       Zr742   2.419       .  S
O734        C749   1.278       .  A
O735       Zr740   2.426       .  S
O735       Zr742   2.387       .  S
O736       Zr741   2.385       .  S
O736       Zr742   2.389       .  S
O736        H771   0.967       .  S
O737       Zr740   2.422       .  S
O737       Zr757   2.386   1_565  S
O737        H774   0.968   1_565  S
O738       Zr741   2.397   1_545  S
O738       Zr757   2.392       .  S
Zr739       O764   2.438       .  S
Zr739       O758   2.410   1_565  S
Zr739       O766   2.425   1_565  S
Zr739       O754   2.385       .  S
Zr739       O745   2.383       .  S
Zr739       O746   2.409       .  S
Zr739       O747   2.388   1_565  S
Zr739       O748   2.381   1_566  S
Zr740       O759   2.438   1_565  S
Zr740       O752   2.434       .  S
Zr740       O753   2.581   1_554  S
Zr740       O746   2.415   1_554  S
Zr740       O747   2.374   1_564  S
Zr741       O743   2.436   1_565  S
Zr741       O765   2.433       .  S
Zr741       O767   2.436   1_564  S
Zr741       O745   2.390   1_554  S
Zr741       O748   2.384   1_565  S
Zr742       O768   2.436       .  S
Zr742       O769   2.438   1_554  S
Zr742       O744   2.438       .  S
Zr742       O745   2.410   1_554  S
Zr742       O746   2.397   1_554  S
O743        H780   0.991       .  S
O744        H775   0.990       .  S
O744        H789   0.990       .  S
O746        H772   0.967       .  S
O747       Zr757   2.365   1_556  S
O748       Zr757   2.350       .  S
O748        H773   0.967   1_554  S
C749       C3536   1.433       .  S
C750       C3524   1.421   1_565  S
C751       C3544   1.473       .  S
O752        H788   0.990       .  S
O753        C755   1.316       .  A
O754        C755   1.274       .  A
C755       C3569   1.483       .  S
O756       Zr757   2.439       .  S
O756        H785   0.990       .  S
Zr757       O760   2.438       .  S
Zr757       O761   2.442       .  S
Zr757       O762   2.427   1_554  S
O758        C763   1.278       .  A
O759        H776   0.990   1_545  S
O759        H791   0.991       .  S
O760        H777   0.990       .  S
O761        H781   0.991       .  S
O761        H790   0.990       .  S
O762        C763   1.284       .  A
C763       C3532   1.420       .  S
O764        H783   0.990       .  S
O764        H787   0.990       .  S
O765        H779   0.990       .  S
O765        H786   0.990       .  S
O766        C770   1.282       .  A
O767        C770   1.283       .  A
O768        H778   0.990   1_554  S
O769        H782   0.989       .  S
C770       C3525   1.428       .  S
Zr793       O794   2.437       .  S
Zr793       O795   2.422       .  S
Zr793       O796   2.382       .  S
Zr793       O799   2.425       .  S
Zr793       O801   2.383       .  S
Zr793       O802   2.381       .  S
Zr793       O803   2.412       .  S
Zr793       O804   2.383       .  S
O794        H850   0.989       .  S
O794        H858   0.991       .  S
O795        C815   1.280       .  A
O796        C817   1.268       .  A
O797       Zr807   2.425       .  S
O797        C816   1.282       .  A
O798       Zr806   2.601       .  S
O798        C817   1.316       .  A
O799        C816   1.281       .  A
O800       Zr808   2.405       .  S
O800        C815   1.279       .  A
O801       Zr806   2.372       .  S
O801       Zr808   2.352       .  S
O802       Zr807   2.376       .  S
O802       Zr808   2.386       .  S
O802        H837   0.964       .  S
O803       Zr806   2.413       .  S
O803       Zr823   2.410       .  S
O803        H840   0.960       .  S
O804       Zr807   2.404       .  S
O804       Zr823   2.404       .  S
Zr805       O830   2.438       .  S
Zr805       O824   2.413       .  S
Zr805       O832   2.422       .  S
Zr805       O820   2.377       .  S
Zr805       O811   2.381       .  S
Zr805       O812   2.405       .  S
Zr805       O813   2.390       .  S
Zr805       O814   2.376       .  S
Zr806       O825   2.435       .  S
Zr806       O818   2.436   1_554  S
Zr806       O819   2.569       .  S
Zr806       O812   2.415       .  S
Zr806       O813   2.403       .  S
Zr807       O809   2.435       .  S
Zr807       O831   2.436       .  S
Zr807       O833   2.419       .  S
Zr807       O811   2.394       .  S
Zr807       O814   2.375       .  S
Zr808       O834   2.436       .  S
Zr808       O835   2.437   1_554  S
Zr808       O810   2.439   1_554  S
Zr808       O811   2.387       .  S
Zr808       O812   2.392       .  S
O809        H846   0.990       .  S
O810        H841   0.990       .  S
O810        H855   0.990       .  S
O812        H838   0.963   1_554  S
O813       Zr823   2.360       .  S
O814       Zr823   2.372       .  S
O814        H839   0.965       .  S
C815       C3728   1.422       .  S
C816       C3696   1.432       .  S
C817       C3513   1.494       .  S
O818        H854   0.990       .  S
O819        C821   1.312       .  A
O820        C821   1.272       .  A
C821       C3509   1.470   1_554  S
O822       Zr823   2.438       .  S
O822        H851   0.989       .  S
Zr823       O826   2.438       .  S
Zr823       O827   2.433       .  S
Zr823       O828   2.452       .  S
O824        C829   1.278       .  A
O825        H842   0.990       .  S
O825        H857   0.990       .  S
O826        H843   0.989       .  S
O827        H847   0.989       .  S
O827        H856   0.991       .  S
O828        C829   1.287       .  A
C829       C3520   1.431       .  S
O830        H849   0.991       .  S
O830        H853   0.990       .  S
O831        H845   0.989       .  S
O831        H852   0.990       .  S
O832        C836   1.281       .  A
O833        C836   1.281       .  A
O834        H844   0.991       .  S
O835        H848   0.990       .  S
C836       C3505   1.423       .  S
Zr859       O860   2.435   1_554  S
Zr859       O861   2.434       .  S
Zr859       O862   2.424       .  S
Zr859       O865   2.435   1_554  S
Zr859       O867   2.390       .  S
Zr859       O868   2.380   1_554  S
Zr859       O869   2.400   1_554  S
Zr859       O870   2.414   1_554  S
O860        H916   0.990       .  S
O860        H924   0.990   1_556  S
O861        C881   1.283       .  A
O862        C883   1.282       .  A
O863       Zr873   2.405       .  S
O863        C882   1.276       .  A
O864       Zr872   2.597       .  S
O864        C883   1.320       .  A
O865        C882   1.283       .  A
O866       Zr874   2.415       .  S
O866        C881   1.278       .  A
O867       Zr872   2.416       .  S
O867       Zr874   2.393       .  S
O868       Zr873   2.396       .  S
O868       Zr874   2.337   1_556  S
O868        H903   0.963   1_556  S
O869       Zr872   2.412   1_556  S
O869       Zr889   2.345       .  S
O869        H906   0.977       .  S
O870       Zr873   2.395       .  S
O870       Zr889   2.411       .  S
Zr871       O896   2.439       .  S
Zr871       O890   2.437       .  S
Zr871       O898   2.417       .  S
Zr871       O886   2.403       .  S
Zr871       O877   2.419       .  S
Zr871       O878   2.411   1_556  S
Zr871       O879   2.391       .  S
Zr871       O880   2.390       .  S
Zr872       O891   2.434       .  S
Zr872       O884   2.436       .  S
Zr872       O885   2.581       .  S
Zr872       O878   2.435       .  S
Zr872       O879   2.413   1_554  S
Zr873       O875   2.435       .  S
Zr873       O897   2.441       .  S
Zr873       O899   2.414       .  S
Zr873       O877   2.401       .  S
Zr873       O880   2.382       .  S
Zr874       O900   2.436       .  S
Zr874       O901   2.435       .  S
Zr874       O876   2.438       .  S
Zr874       O877   2.414   1_554  S
Zr874       O878   2.351       .  S
O875        H912   0.990       .  S
O876        H907   0.990       .  S
O876        H921   0.990       .  S
O878        H904   0.966       .  S
O879       Zr889   2.394       .  S
O880       Zr889   2.344       .  S
O880        H905   0.962       .  S
C881       C3685   1.433       .  S
C882       C3737   1.415       .  S
C883       C3516   1.494       .  S
O884        H920   0.990       .  S
O885        C887   1.312       .  A
O886        C887   1.272   1_556  A
C887       C3497   1.486       .  S
O888       Zr889   2.437       .  S
O888        H917   0.990       .  S
Zr889       O892   2.435       .  S
Zr889       O893   2.441       .  S
Zr889       O894   2.405       .  S
O890        C895   1.283       .  A
O891        H908   0.991       .  S
O891        H923   0.990       .  S
O892        H909   0.990       .  S
O893        H913   0.989       .  S
O893        H922   0.991       .  S
O894        C895   1.277       .  A
C895       C3501   1.430       .  S
O896        H915   0.990       .  S
O896        H919   0.991       .  S
O897        H911   0.991       .  S
O897        H918   0.991       .  S
O898        C902   1.274       .  A
O899        C902   1.272       .  A
O900        H910   0.990       .  S
O901        H914   0.989       .  S
C902       C3493   1.430       .  S
Zr925       O926   2.440       .  S
Zr925       O927   2.420       .  S
Zr925       O928   2.399       .  S
Zr925       O931   2.392       .  S
Zr925       O933   2.374       .  S
Zr925       O934   2.385       .  S
Zr925       O935   2.405       .  S
Zr925       O936   2.396       .  S
O926        H982   0.991       .  S
O926        H990   0.990       .  S
O927        C947   1.280       .  A
O928        C949   1.276   1_556  A
O929       Zr939   2.435       .  S
O929        C948   1.284       .  A
O930       Zr938   2.572   1_554  S
O930        C949   1.313       .  A
O931        C948   1.276       .  A
O932       Zr940   2.436       .  S
O932        C947   1.284       .  A
O933       Zr938   2.384       .  S
O933       Zr940   2.368       .  S
O934       Zr939   2.375       .  S
O934       Zr940   2.373       .  S
O934        H969   0.964       .  S
O935       Zr938   2.407       .  S
O935       Zr955   2.414       .  S
O935        H972   0.965   1_556  S
O936       Zr939   2.393       .  S
O936       Zr955   2.383       .  S
Zr937       O962   2.439       .  S
Zr937       O956   2.412       .  S
Zr937       O964   2.423       .  S
Zr937       O952   2.400       .  S
Zr937       O943   2.392       .  S
Zr937       O944   2.411       .  S
Zr937       O945   2.382       .  S
Zr937       O946   2.385       .  S
Zr938       O957   2.437   1_556  S
Zr938       O950   2.437   1_556  S
Zr938       O951   2.542   1_556  S
Zr938       O944   2.428       .  S
Zr938       O945   2.387       .  S
Zr939       O941   2.435       .  S
Zr939       O963   2.436       .  S
Zr939       O965   2.431       .  S
Zr939       O943   2.400       .  S
Zr939       O946   2.380       .  S
Zr940       O966   2.440       .  S
Zr940       O967   2.434       .  S
Zr940       O942   2.437       .  S
Zr940       O943   2.400       .  S
Zr940       O944   2.401       .  S
O941        H978   0.990       .  S
O942        H973   0.989       .  S
O942        H987   0.990       .  S
O944        H970   0.972       .  S
O945       Zr955   2.349       .  S
O946       Zr955   2.361       .  S
O946        H971   0.967       .  S
C947       C3485   1.430       .  S
C948       C3473   1.419       .  S
C949       C3500   1.486       .  S
O950        H986   0.990       .  S
O951        C953   1.302   1_554  A
O952        C953   1.270       .  A
C953       C3481   1.469   1_556  S
O954       Zr955   2.434       .  S
O954        H983   0.990       .  S
Zr955       O958   2.430   1_556  S
Zr955       O959   2.439       .  S
Zr955       O960   2.426       .  S
O956        C961   1.277       .  A
O957        H974   0.989       .  S
O957        H989   0.990       .  S
O958        H975   0.990       .  S
O959        H979   0.990       .  S
O959        H988   0.991       .  S
O960        C961   1.283       .  A
C961       C3489   1.424       .  S
O962        H981   0.991       .  S
O962        H985   0.989       .  S
O963        H977   0.989       .  S
O963        H984   0.991       .  S
O964        C968   1.281       .  A
O965        C968   1.283       .  A
O966        H976   0.990       .  S
O967        H980   0.991       .  S
C968       C3477   1.427       .  S
Zr991       O992   2.434       .  S
Zr991       O993   2.435   1_554  S
Zr991       O994   2.455       .  S
Zr991       O997   2.454       .  S
Zr991       O999   2.395   1_554  S
Zr991      O1000   2.380       .  S
Zr991      O1001   2.398       .  S
Zr991      O1002   2.410       .  S
O992       H1048   0.990       .  S
O992       H1056   0.989       .  S
O993       C1013   1.284       .  A
O994       C1015   1.290   1_554  A
O995      Zr1005   2.409       .  S
O995       C1014   1.279       .  A
O996      Zr1004   2.531   1_556  S
O996       C1015   1.306       .  A
O997       C1014   1.288       .  A
O998      Zr1006   2.426   1_556  S
O998       C1013   1.280       .  A
O999      Zr1004   2.412   1_556  S
O999      Zr1006   2.397   1_556  S
O1000     Zr1005   2.400       .  S
O1000     Zr1006   2.330       .  S
O1000      H1035   0.965       .  S
O1001     Zr1004   2.412       .  S
O1001     Zr1021   2.337       .  S
O1001      H1038   0.969       .  S
O1002     Zr1005   2.390       .  S
O1002     Zr1021   2.406       .  S
Zr1003     O1028   2.437       .  S
Zr1003     O1022   2.440       .  S
Zr1003     O1030   2.409       .  S
Zr1003     O1018   2.426       .  S
Zr1003     O1009   2.430       .  S
Zr1003     O1010   2.408       .  S
Zr1003     O1011   2.390       .  S
Zr1003     O1012   2.407       .  S
Zr1004     O1023   2.435       .  S
Zr1004     O1016   2.433   1_554  S
Zr1004     O1017   2.532   1_554  S
Zr1004     O1010   2.425       .  S
Zr1004     O1011   2.415       .  S
Zr1005     O1007   2.437       .  S
Zr1005     O1029   2.440       .  S
Zr1005     O1031   2.402       .  S
Zr1005     O1009   2.400       .  S
Zr1005     O1012   2.398       .  S
Zr1006     O1032   2.437       .  S
Zr1006     O1033   2.439       .  S
Zr1006     O1008   2.439   1_554  S
Zr1006     O1009   2.403       .  S
Zr1006     O1010   2.347       .  S
O1007      H1044   0.990       .  S
O1008      H1039   0.990       .  S
O1008      H1053   0.991       .  S
O1010      H1036   0.946       .  S
O1011     Zr1021   2.410       .  S
O1012     Zr1021   2.348       .  S
O1012      H1037   0.967       .  S
C1013      C3469   1.437       .  S
C1014      C3464   1.420       .  S
C1015      C3484   1.472       .  S
O1016      H1052   0.991       .  S
O1017      C1019   1.301   1_556  A
O1018      C1019   1.274       .  A
C1019      C3512   1.473   1_554  S
O1020     Zr1021   2.442       .  S
O1020      H1049   0.991       .  S
Zr1021     O1024   2.440       .  S
Zr1021     O1025   2.446       .  S
Zr1021     O1026   2.382       .  S
O1022      C1027   1.283       .  A
O1023      H1040   0.991       .  S
O1023      H1055   0.990       .  S
O1024      H1041   0.990       .  S
O1025      H1045   0.990       .  S
O1025      H1054   0.989       .  S
O1026      C1027   1.272       .  A
C1027      C3468   1.420       .  S
O1028      H1047   0.988       .  S
O1028      H1051   0.990       .  S
O1029      H1043   0.991       .  S
O1029      H1050   0.990       .  S
O1030      C1034   1.264       .  A
O1031      C1034   1.268       .  A
O1032      H1042   0.991       .  S
O1033      H1046   0.990       .  S
C1034      C3457   1.422       .  S
Zr1057     O1058   2.444   1_554  S
Zr1057     O1059   2.414       .  S
Zr1057     O1060   2.419       .  S
Zr1057     O1063   2.430       .  S
Zr1057     O1065   2.389       .  S
Zr1057     O1066   2.398       .  S
Zr1057     O1067   2.420       .  S
Zr1057     O1068   2.367       .  S
O1058      H1114   0.991       .  S
O1058      H1122   0.991       .  S
O1059      C1079   1.276       .  A
O1060      C1081   1.277       .  A
O1061     Zr1071   2.557       .  S
O1061      C1080   1.309   1_545  A
O1062     Zr1070   2.429       .  S
O1062      C1081   1.280       .  A
O1063      C1080   1.282       .  A
O1064     Zr1072   2.410       .  S
O1064      C1079   1.277       .  A
O1065     Zr1070   2.406       .  S
O1065     Zr1072   2.364       .  S
O1066     Zr1071   2.400   1_565  S
O1066     Zr1072   2.400       .  S
O1066      H1101   0.963       .  S
O1067     Zr1070   2.414       .  S
O1067     Zr1087   2.406       .  S
O1067      H1104   0.966       .  S
O1068     Zr1071   2.362   1_565  S
O1068     Zr1087   2.353       .  S
Zr1069     O1094   2.441       .  S
Zr1069     O1088   2.439       .  S
Zr1069     O1096   2.406       .  S
Zr1069     O1084   2.415       .  S
Zr1069     O1076   2.418       .  S
Zr1069     O1077   2.365       .  S
Zr1069     O1078   2.390       .  S
Zr1069     O1075   2.270       .  S
Zr1070     O1089   2.442       .  S
Zr1070     O1082   2.435       .  S
Zr1070     O1083   2.443       .  S
Zr1070     O1076   2.396       .  S
Zr1070     O1077   2.390       .  S
Zr1071     O1073   2.435       .  S
Zr1071     O1095   2.436       .  S
Zr1071     O1097   2.554       .  S
Zr1071     O1078   2.412   1_545  S
Zr1071     O1075   2.247   1_545  S
Zr1072     O1098   2.435       .  S
Zr1072     O1099   2.435       .  S
Zr1072     O1074   2.438       .  S
Zr1072     O1076   2.427       .  S
Zr1072     O1075   2.284       .  S
O1073      H1110   0.991       .  S
O1074      H1105   0.990       .  S
O1074      H1119   0.991       .  S
O1076      H1102   0.971       .  S
O1077     Zr1087   2.368       .  S
O1078     Zr1087   2.419       .  S
O1078      H1103   0.971       .  S
C1079      C3461   1.418       .  S
C1080      C3445   1.469   1_564  S
C1081      C3492   1.426       .  S
O1082      H1118   0.990       .  S
O1083      C1085   1.283       .  A
O1084      C1085   1.276       .  A
C1085      C3444   1.435       .  S
O1086     Zr1087   2.436   1_556  S
O1086      H1115   0.990       .  S
Zr1087     O1090   2.432       .  S
Zr1087     O1091   2.437       .  S
Zr1087     O1092   2.391       .  S
O1088      C1093   1.281       .  A
O1089      H1106   0.990       .  S
O1089      H1121   0.989       .  S
O1090      H1107   0.990       .  S
O1091      H1111   0.990       .  S
O1091      H1120   0.990       .  S
O1092      C1093   1.272       .  A
C1093      C3453   1.424       .  S
O1094      H1113   0.991       .  S
O1094      H1117   0.991       .  S
O1095      H1109   0.990       .  S
O1095      H1116   0.990       .  S
O1096      C1100   1.278   1_565  A
O1097      C1100   1.309       .  A
O1098      H1108   0.988   1_565  S
O1099      H1112   0.989       .  S
C1100      C3449   1.468       .  S
Zr1123     O1124   2.442       .  S
Zr1123     O1125   2.406   1_565  S
Zr1123     O1126   2.411   1_565  S
Zr1123     O1129   2.406       .  S
Zr1123     O1131   2.371   1_565  S
Zr1123     O1132   2.390   1_565  S
Zr1123     O1133   2.400       .  S
Zr1123     O1134   2.367       .  S
O1124      H1180   0.990   1_565  S
O1124      H1188   0.991       .  S
O1125      C1145   1.277       .  A
O1126      C1147   1.277       .  A
O1127     Zr1137   2.540       .  S
O1127      C1146   1.306       .  A
O1128     Zr1136   2.441       .  S
O1128      C1147   1.285   1_565  A
O1129      C1146   1.278       .  A
O1130     Zr1138   2.422       .  S
O1130      C1145   1.280       .  A
O1131     Zr1136   2.386   1_545  S
O1131     Zr1138   2.359       .  S
O1132     Zr1137   2.401   1_545  S
O1132     Zr1138   2.397       .  S
O1132      H1167   0.966       .  S
O1133     Zr1136   2.404       .  S
O1133     Zr1153   2.408       .  S
O1133      H1170   0.965       .  S
O1134     Zr1137   2.381       .  S
O1134     Zr1153   2.361       .  S
Zr1135     O1160   2.444       .  S
Zr1135     O1154   2.453       .  S
Zr1135     O1162   2.428       .  S
Zr1135     O1150   2.431       .  S
Zr1135     O1141   2.375       .  S
Zr1135     O1142   2.421       .  S
Zr1135     O1143   2.368       .  S
Zr1135     O1144   2.393       .  S
Zr1136     O1155   2.434       .  S
Zr1136     O1148   2.437   1_565  S
Zr1136     O1149   2.427       .  S
Zr1136     O1142   2.399       .  S
Zr1136     O1143   2.403       .  S
Zr1137     O1139   2.436       .  S
Zr1137     O1161   2.437   1_565  S
Zr1137     O1163   2.557       .  S
Zr1137     O1141   2.354       .  S
Zr1137     O1144   2.410       .  S
Zr1138     O1164   2.435       .  S
Zr1138     O1165   2.436       .  S
Zr1138     O1140   2.437       .  S
Zr1138     O1141   2.357   1_545  S
Zr1138     O1142   2.428   1_545  S
O1139      H1176   0.990       .  S
O1140      H1171   0.990       .  S
O1140      H1185   0.990       .  S
O1142      H1168   0.965       .  S
O1143     Zr1153   2.380       .  S
O1144     Zr1153   2.408       .  S
O1144      H1169   0.971       .  S
C1145      C3437   1.420       .  S
C1146      C3436   1.463       .  S
C1147      C3429   1.431       .  S
O1148      H1184   0.990       .  S
O1149      C1151   1.281       .  A
O1150      C1151   1.279       .  A
C1151      C3472   1.436       .  S
O1152     Zr1153   2.436       .  S
O1152      H1181   0.990       .  S
Zr1153     O1156   2.435       .  S
Zr1153     O1157   2.437       .  S
Zr1153     O1158   2.399       .  S
O1154      C1159   1.285       .  A
O1155      H1172   0.990       .  S
O1155      H1187   0.989       .  S
O1156      H1173   0.990       .  S
O1157      H1177   0.990       .  S
O1157      H1186   0.990       .  S
O1158      C1159   1.275       .  A
C1159      C3480   1.430       .  S
O1160      H1179   0.991       .  S
O1160      H1183   0.991       .  S
O1161      H1175   0.990       .  S
O1161      H1182   0.990       .  S
O1162      C1166   1.282       .  A
O1163      C1166   1.310       .  A
O1164      H1174   0.990       .  S
O1165      H1178   0.990       .  S
C1166      C3448   1.469       .  S
Zr1189     O1190   2.440       .  S
Zr1189     O1191   2.455       .  S
Zr1189     O1192   2.426       .  S
Zr1189     O1195   2.458   1_545  S
Zr1189     O1197   2.363       .  S
Zr1189     O1198   2.400   1_545  S
Zr1189     O1199   2.427       .  S
Zr1189     O1200   2.362       .  S
O1190      H1246   0.990   1_545  S
O1190      H1254   0.990       .  S
O1191      C1211   1.285       .  A
O1192      C1213   1.281       .  A
O1193     Zr1203   2.531       .  S
O1193      C1212   1.305       .  A
O1194     Zr1202   2.422       .  S
O1194      C1213   1.280       .  A
O1195      C1212   1.290       .  A
O1196     Zr1204   2.390       .  S
O1196      C1211   1.273       .  A
O1197     Zr1202   2.367       .  S
O1197     Zr1204   2.359       .  S
O1198     Zr1203   2.425       .  S
O1198     Zr1204   2.409   1_565  S
O1198      H1233   0.969       .  S
O1199     Zr1202   2.397       .  S
O1199     Zr1219   2.432       .  S
O1199      H1236   0.971       .  S
O1200     Zr1203   2.345   1_545  S
O1200     Zr1219   2.353       .  S
Zr1201     O1226   2.441       .  S
Zr1201     O1220   2.429       .  S
Zr1201     O1228   2.449       .  S
Zr1201     O1216   2.452       .  S
Zr1201     O1207   2.372       .  S
Zr1201     O1208   2.420       .  S
Zr1201     O1209   2.388       .  S
Zr1201     O1210   2.420       .  S
Zr1202     O1221   2.435       .  S
Zr1202     O1214   2.435       .  S
Zr1202     O1215   2.408       .  S
Zr1202     O1208   2.408       .  S
Zr1202     O1209   2.366       .  S
Zr1203     O1205   2.438       .  S
Zr1203     O1227   2.437       .  S
Zr1203     O1229   2.532       .  S
Zr1203     O1207   2.357   1_565  S
Zr1203     O1210   2.417   1_565  S
Zr1204     O1230   2.437   1_545  S
Zr1204     O1231   2.436       .  S
Zr1204     O1206   2.438       .  S
Zr1204     O1207   2.349       .  S
Zr1204     O1208   2.410       .  S
O1205      H1242   0.989       .  S
O1206      H1237   0.990       .  S
O1206      H1251   0.991       .  S
O1208      H1234   0.967       .  S
O1209     Zr1219   2.389       .  S
O1210     Zr1219   2.424       .  S
O1210      H1235   0.966       .  S
C1211      C3421   1.426       .  S
C1212      C3433   1.466       .  S
C1213      C3413   1.430       .  S
O1214      H1250   0.991       .  S
O1215      C1217   1.279       .  A
O1216      C1217   1.285       .  A
C1217      C3409   1.431       .  S
O1218     Zr1219   2.436       .  S
O1218      H1247   0.991       .  S
Zr1219     O1222   2.435       .  S
Zr1219     O1223   2.437       .  S
Zr1219     O1224   2.425       .  S
O1220      C1225   1.270       .  A
O1221      H1238   0.989       .  S
O1221      H1253   0.990       .  S
O1222      H1239   0.991       .  S
O1223      H1243   0.990       .  S
O1223      H1252   0.990   1_545  S
O1224      C1225   1.268       .  A
C1225      C3425   1.429       .  S
O1226      H1245   0.990       .  S
O1226      H1249   0.991       .  S
O1227      H1241   0.990       .  S
O1227      H1248   0.990       .  S
O1228      C1232   1.287   1_545  A
O1229      C1232   1.305       .  A
O1230      H1240   0.990       .  S
O1231      H1244   0.990       .  S
C1232      C3420   1.462       .  S
Zr1255     O1256   2.440       .  S
Zr1255     O1257   2.416       .  S
Zr1255     O1258   2.400       .  S
Zr1255     O1261   2.400       .  S
Zr1255     O1263   2.364       .  S
Zr1255     O1264   2.397       .  S
Zr1255     O1265   2.407       .  S
Zr1255     O1266   2.370   1_545  S
O1256      H1312   0.989       .  S
O1256      H1320   0.991       .  S
O1257      C1277   1.281       .  A
O1258      C1279   1.277       .  A
O1259     Zr1269   2.549       .  S
O1259      C1278   1.308       .  A
O1260     Zr1268   2.452       .  S
O1260      C1279   1.287       .  A
O1261      C1278   1.278   1_545  A
O1262     Zr1270   2.442       .  S
O1262      C1277   1.284       .  A
O1263     Zr1268   2.390       .  S
O1263     Zr1270   2.353       .  S
O1264     Zr1269   2.387   1_545  S
O1264     Zr1270   2.400       .  S
O1264      H1299   0.961       .  S
O1265     Zr1268   2.396       .  S
O1265     Zr1285   2.412   1_545  S
O1265      H1302   0.963       .  S
O1266     Zr1269   2.375       .  S
O1266     Zr1285   2.352       .  S
Zr1267     O1292   2.442   1_545  S
Zr1267     O1286   2.422   1_545  S
Zr1267     O1294   2.406       .  S
Zr1267     O1282   2.400       .  S
Zr1267     O1273   2.379       .  S
Zr1267     O1274   2.421       .  S
Zr1267     O1275   2.382   1_545  S
Zr1267     O1276   2.390   1_545  S
Zr1268     O1287   2.437       .  S
Zr1268     O1280   2.436       .  S
Zr1268     O1281   2.462       .  S
Zr1268     O1274   2.405       .  S
Zr1268     O1275   2.397   1_545  S
Zr1269     O1271   2.435       .  S
Zr1269     O1293   2.437   1_565  S
Zr1269     O1295   2.552       .  S
Zr1269     O1273   2.382   1_565  S
Zr1269     O1276   2.391       .  S
Zr1270     O1296   2.434       .  S
Zr1270     O1297   2.440       .  S
Zr1270     O1272   2.439       .  S
Zr1270     O1273   2.380       .  S
Zr1270     O1274   2.422       .  S
O1271      H1308   0.990       .  S
O1272      H1303   0.990       .  S
O1272      H1317   0.990       .  S
O1274      H1300   0.968       .  S
O1275     Zr1285   2.364       .  S
O1276     Zr1285   2.411       .  S
O1276      H1301   0.963       .  S
C1277      C3408   1.426       .  S
C1278      C3417   1.460       .  S
C1279      C3393   1.427       .  S
O1280      H1316   0.989       .  S
O1281      C1283   1.284       .  A
O1282      C1283   1.268       .  A
C1283      C3397   1.433   1_545  S
O1284     Zr1285   2.444       .  S
O1284      H1313   0.989       .  S
Zr1285     O1288   2.434       .  S
Zr1285     O1289   2.441       .  S
Zr1285     O1290   2.398       .  S
O1286      C1291   1.278       .  A
O1287      H1304   0.989       .  S
O1287      H1319   0.990       .  S
O1288      H1305   0.989       .  S
O1289      H1309   0.990       .  S
O1289      H1318   0.991       .  S
O1290      C1291   1.275       .  A
C1291      C3401   1.415       .  S
O1292      H1311   0.990   1_565  S
O1292      H1315   0.990       .  S
O1293      H1307   0.991       .  S
O1293      H1314   0.990   1_545  S
O1294      C1298   1.277       .  A
O1295      C1298   1.308   1_565  A
O1296      H1306   0.989       .  S
O1297      H1310   0.990       .  S
C1298      C3452   1.469       .  S
Zr1321     O1322   2.441   1_455  S
Zr1321     O1323   2.442       .  S
Zr1321     O1324   2.352   1_455  S
Zr1321     O1327   2.417       .  S
Zr1321     O1329   2.382   1_545  S
Zr1321     O1330   2.376   1_545  S
Zr1321     O1331   2.417   1_455  S
Zr1321     O1332   2.384   1_455  S
O1322      H1378   0.990   1_655  S
O1322      H1386   0.990       .  S
O1323      C1343   1.284       .  A
O1324      C1345   1.268       .  A
O1325     Zr1335   2.421   1_545  S
O1325      C1344   1.280       .  A
O1326     Zr1334   2.596   1_545  S
O1326      C1345   1.318       .  A
O1327      C1344   1.280       .  A
O1328     Zr1336   2.411   1_545  S
O1328      C1343   1.279       .  A
O1329     Zr1334   2.382   1_455  S
O1329     Zr1336   2.372       .  S
O1330     Zr1335   2.385       .  S
O1330     Zr1336   2.361       .  S
O1330      H1365   0.967   1_565  S
O1331     Zr1334   2.408   1_545  S
O1331     Zr1351   2.389   1_545  S
O1331      H1368   0.965       .  S
O1332     Zr1335   2.385   1_645  S
O1332     Zr1351   2.403   1_545  S
Zr1333     O1358   2.443       .  S
Zr1333     O1352   2.435       .  S
Zr1333     O1360   2.451       .  S
Zr1333     O1348   2.424       .  S
Zr1333     O1339   2.396   1_655  S
Zr1333     O1340   2.415   1_655  S
Zr1333     O1341   2.401       .  S
Zr1333     O1342   2.382       .  S
Zr1334     O1353   2.435       .  S
Zr1334     O1346   2.434   1_655  S
Zr1334     O1347   2.548       .  S
Zr1334     O1340   2.422   1_655  S
Zr1334     O1341   2.423       .  S
Zr1335     O1337   2.435   1_455  S
Zr1335     O1359   2.438       .  S
Zr1335     O1361   2.406       .  S
Zr1335     O1339   2.401       .  S
Zr1335     O1342   2.379   1_455  S
Zr1336     O1362   2.436       .  S
Zr1336     O1363   2.435       .  S
Zr1336     O1338   2.437       .  S
Zr1336     O1339   2.389       .  S
Zr1336     O1340   2.368       .  S
O1337      H1374   0.989       .  S
O1338      H1369   0.990       .  S
O1338      H1383   0.990       .  S
O1340      H1366   0.962       .  S
O1341     Zr1351   2.389       .  S
O1342     Zr1351   2.383       .  S
O1342      H1367   0.964       .  S
C1343      C3432   1.428       .  S
C1344      C3424   1.419       .  S
C1345      C3388   1.475       .  S
O1346      H1382   0.990       .  S
O1347      C1349   1.308       .  A
O1348      C1349   1.280       .  A
C1349      C3389   1.477       .  S
O1350     Zr1351   2.437   1_545  S
O1350      H1379   0.990       .  S
Zr1351     O1354   2.435       .  S
Zr1351     O1355   2.435   1_565  S
Zr1351     O1356   2.424       .  S
O1352      C1357   1.281       .  A
O1353      H1370   0.988       .  S
O1353      H1385   0.991       .  S
O1354      H1371   0.990       .  S
O1355      H1375   0.990       .  S
O1355      H1384   0.989       .  S
O1356      C1357   1.280       .  A
C1357      C3624   1.431       .  S
O1358      H1377   0.990       .  S
O1358      H1381   0.991       .  S
O1359      H1373   0.990       .  S
O1359      H1380   0.990       .  S
O1360      C1364   1.285   1_655  A
O1361      C1364   1.277       .  A
O1362      H1372   0.990       .  S
O1363      H1376   0.991       .  S
C1364      C3661   1.431       .  S
Zr1387     O1388   2.442       .  S
Zr1387     O1389   2.443       .  S
Zr1387     O1390   2.389       .  S
Zr1387     O1393   2.386       .  S
Zr1387     O1395   2.385       .  S
Zr1387     O1396   2.374       .  S
Zr1387     O1397   2.408       .  S
Zr1387     O1398   2.397       .  S
O1388      H1444   0.990       .  S
O1388      H1452   0.991       .  S
O1389      C1409   1.284       .  A
O1390      C1411   1.274       .  A
O1391     Zr1401   2.442       .  S
O1391      C1410   1.284       .  A
O1392     Zr1400   2.581       .  S
O1392      C1411   1.315       .  A
O1393      C1410   1.275       .  A
O1394     Zr1402   2.412       .  S
O1394      C1409   1.279       .  A
O1395     Zr1400   2.405       .  S
O1395     Zr1402   2.378       .  S
O1396     Zr1401   2.375       .  S
O1396     Zr1402   2.374       .  S
O1396      H1431   0.966       .  S
O1397     Zr1400   2.407       .  S
O1397     Zr1417   2.381       .  S
O1397      H1434   0.968       .  S
O1398     Zr1401   2.392       .  S
O1398     Zr1417   2.402       .  S
Zr1399     O1424   2.437       .  S
Zr1399     O1418   2.406       .  S
Zr1399     O1426   2.425       .  S
Zr1399     O1414   2.361       .  S
Zr1399     O1405   2.383       .  S
Zr1399     O1406   2.407       .  S
Zr1399     O1407   2.392       .  S
Zr1399     O1408   2.373       .  S
Zr1400     O1419   2.436   1_655  S
Zr1400     O1412   2.435       .  S
Zr1400     O1413   2.581       .  S
Zr1400     O1406   2.412       .  S
Zr1400     O1407   2.385       .  S
Zr1401     O1403   2.436       .  S
Zr1401     O1425   2.436       .  S
Zr1401     O1427   2.437       .  S
Zr1401     O1405   2.399       .  S
Zr1401     O1408   2.380       .  S
Zr1402     O1428   2.434       .  S
Zr1402     O1429   2.440       .  S
Zr1402     O1404   2.437       .  S
Zr1402     O1405   2.413       .  S
Zr1402     O1406   2.387       .  S
O1403      H1440   0.990       .  S
O1404      H1435   0.988       .  S
O1404      H1449   0.990       .  S
O1406      H1432   0.966       .  S
O1407     Zr1417   2.362       .  S
O1408     Zr1417   2.362       .  S
O1408      H1433   0.969       .  S
C1409      C3724   1.430       .  S
C1410      C3720   1.419       .  S
C1411      C3381   1.485   1_655  S
O1412      H1448   0.990   1_655  S
O1413      C1415   1.315       .  A
O1414      C1415   1.271       .  A
C1415      C3392   1.473       .  S
O1416     Zr1417   2.436       .  S
O1416      H1445   0.990       .  S
Zr1417     O1420   2.436       .  S
Zr1417     O1421   2.439       .  S
Zr1417     O1422   2.429       .  S
O1418      C1423   1.277       .  A
O1419      H1436   0.990       .  S
O1419      H1451   0.990       .  S
O1420      H1437   0.990       .  S
O1421      H1441   0.991       .  S
O1421      H1450   0.990       .  S
O1422      C1423   1.284       .  A
C1423      C3648   1.422       .  S
O1424      H1443   0.989       .  S
O1424      H1447   0.990       .  S
O1425      H1439   0.989       .  S
O1425      H1446   0.990       .  S
O1426      C1430   1.282       .  A
O1427      C1430   1.284       .  A
O1428      H1438   0.989       .  S
O1429      H1442   0.990       .  S
C1430      C3636   1.431       .  S
Zr1453     O1454   2.445   1_655  S
Zr1453     O1455   2.449       .  S
Zr1453     O1456   2.369   1_655  S
Zr1453     O1459   2.422       .  S
Zr1453     O1461   2.385       .  S
Zr1453     O1462   2.372       .  S
Zr1453     O1463   2.419   1_655  S
Zr1453     O1464   2.397   1_655  S
O1454      H1510   0.991   1_455  S
O1454      H1518   0.991       .  S
O1455      C1475   1.282       .  A
O1456      C1477   1.268       .  A
O1457     Zr1467   2.426   1_655  S
O1457      C1476   1.281       .  A
O1458     Zr1466   2.594       .  S
O1458      C1477   1.316       .  A
O1459      C1476   1.281       .  A
O1460     Zr1468   2.398       .  S
O1460      C1475   1.272       .  A
O1461     Zr1466   2.394   1_655  S
O1461     Zr1468   2.396       .  S
O1462     Zr1467   2.376   1_655  S
O1462     Zr1468   2.356       .  S
O1462      H1497   0.966       .  S
O1463     Zr1466   2.413       .  S
O1463     Zr1483   2.399       .  S
O1463      H1500   0.961       .  S
O1464     Zr1467   2.396       .  S
O1464     Zr1483   2.411       .  S
Zr1465     O1490   2.442       .  S
Zr1465     O1484   2.424       .  S
Zr1465     O1492   2.433       .  S
Zr1465     O1480   2.402       .  S
Zr1465     O1471   2.391   1_455  S
Zr1465     O1472   2.405       .  S
Zr1465     O1473   2.394       .  S
Zr1465     O1474   2.374       .  S
Zr1466     O1485   2.436       .  S
Zr1466     O1478   2.434       .  S
Zr1466     O1479   2.553       .  S
Zr1466     O1472   2.421       .  S
Zr1466     O1473   2.426       .  S
Zr1467     O1469   2.435       .  S
Zr1467     O1491   2.439   1_455  S
Zr1467     O1493   2.411       .  S
Zr1467     O1471   2.393   1_455  S
Zr1467     O1474   2.389       .  S
Zr1468     O1494   2.434       .  S
Zr1468     O1495   2.437       .  S
Zr1468     O1470   2.437       .  S
Zr1468     O1471   2.377       .  S
Zr1468     O1472   2.362   1_655  S
O1469      H1506   0.990       .  S
O1470      H1501   0.990       .  S
O1470      H1515   0.988       .  S
O1472      H1498   0.971   1_455  S
O1473     Zr1483   2.385       .  S
O1474     Zr1483   2.368       .  S
O1474      H1499   0.967       .  S
C1475      C3708   1.425       .  S
C1476      C3744   1.426       .  S
C1477      C3384   1.482       .  S
O1478      H1514   0.990   1_455  S
O1479      C1481   1.309       .  A
O1480      C1481   1.277       .  A
C1481      C3373   1.471       .  S
O1482     Zr1483   2.434       .  S
O1482      H1511   0.989       .  S
Zr1483     O1486   2.437       .  S
Zr1483     O1487   2.439       .  S
Zr1483     O1488   2.431       .  S
O1484      C1489   1.280       .  A
O1485      H1502   0.990       .  S
O1485      H1517   0.991       .  S
O1486      H1503   0.990       .  S
O1487      H1507   0.991       .  S
O1487      H1516   0.990       .  S
O1488      C1489   1.280       .  A
C1489      C3377   1.432       .  S
O1490      H1509   0.990       .  S
O1490      H1513   0.990       .  S
O1491      H1505   0.989       .  S
O1491      H1512   0.991       .  S
O1492      C1496   1.282       .  A
O1493      C1496   1.279       .  A
O1494      H1504   0.990       .  S
O1495      H1508   0.991       .  S
C1496      C3369   1.426       .  S
Zr1519     O1520   2.437       .  S
Zr1519     O1521   2.421       .  S
Zr1519     O1522   2.365       .  S
Zr1519     O1525   2.427       .  S
Zr1519     O1527   2.385       .  S
Zr1519     O1528   2.377       .  S
Zr1519     O1529   2.418       .  S
Zr1519     O1530   2.390       .  S
O1520      H1576   0.990       .  S
O1520      H1584   0.990       .  S
O1521      C1541   1.279       .  A
O1522      C1543   1.271       .  A
O1523     Zr1533   2.429       .  S
O1523      C1542   1.281       .  A
O1524     Zr1532   2.568       .  S
O1524      C1543   1.312       .  A
O1525      C1542   1.282       .  A
O1526     Zr1534   2.415       .  S
O1526      C1541   1.282       .  A
O1527     Zr1532   2.380       .  S
O1527     Zr1534   2.367       .  S
O1528     Zr1533   2.378       .  S
O1528     Zr1534   2.360       .  S
O1528      H1563   0.965       .  S
O1529     Zr1532   2.414       .  S
O1529     Zr1549   2.399       .  S
O1529      H1566   0.974       .  S
O1530     Zr1533   2.387       .  S
O1530     Zr1549   2.413       .  S
Zr1531     O1556   2.440       .  S
Zr1531     O1550   2.421       .  S
Zr1531     O1558   2.423       .  S
Zr1531     O1546   2.402       .  S
Zr1531     O1537   2.400       .  S
Zr1531     O1538   2.400       .  S
Zr1531     O1539   2.394       .  S
Zr1531     O1540   2.379       .  S
Zr1532     O1551   2.435       .  S
Zr1532     O1544   2.434       .  S
Zr1532     O1545   2.561       .  S
Zr1532     O1538   2.409       .  S
Zr1532     O1539   2.412       .  S
Zr1533     O1535   2.435       .  S
Zr1533     O1557   2.441       .  S
Zr1533     O1559   2.407       .  S
Zr1533     O1537   2.401       .  S
Zr1533     O1540   2.383       .  S
Zr1534     O1560   2.435       .  S
Zr1534     O1561   2.436       .  S
Zr1534     O1536   2.439       .  S
Zr1534     O1537   2.393       .  S
Zr1534     O1538   2.377       .  S
O1535      H1572   0.991       .  S
O1536      H1567   0.990       .  S
O1536      H1581   0.989       .  S
O1538      H1564   0.966       .  S
O1539     Zr1549   2.386       .  S
O1540     Zr1549   2.373       .  S
O1540      H1565   0.969       .  S
C1541      C3368   1.422       .  S
C1542      C3361   1.430       .  S
C1543      C3376   1.469       .  S
O1544      H1580   0.991       .  S
O1545      C1547   1.311       .  A
O1546      C1547   1.278       .  A
C1547      C3385   1.482       .  S
O1548     Zr1549   2.440       .  S
O1548      H1577   0.990       .  S
Zr1549     O1552   2.437       .  S
Zr1549     O1553   2.439       .  S
Zr1549     O1554   2.431       .  S
O1550      C1555   1.280       .  A
O1551      H1568   0.991       .  S
O1551      H1583   0.991       .  S
O1552      H1569   0.989       .  S
O1553      H1573   0.991       .  S
O1553      H1582   0.990       .  S
O1554      C1555   1.282       .  A
C1555      C3416   1.431       .  S
O1556      H1575   0.990       .  S
O1556      H1579   0.990       .  S
O1557      H1571   0.989       .  S
O1557      H1578   0.990       .  S
O1558      C1562   1.280       .  A
O1559      C1562   1.276       .  A
O1560      H1570   0.991       .  S
O1561      H1574   0.990       .  S
C1562      C3440   1.420       .  S
Zr1585     O1586   2.445       .  S
Zr1585     O1587   2.439       .  S
Zr1585     O1588   2.395       .  S
Zr1585     O1591   2.393       .  S
Zr1585     O1593   2.385       .  S
Zr1585     O1594   2.373       .  S
Zr1585     O1595   2.412       .  S
Zr1585     O1596   2.396       .  S
O1586      H1642   0.991       .  S
O1586      H1650   0.990       .  S
O1587      C1607   1.283       .  A
O1588      C1609   1.273       .  A
O1589     Zr1599   2.420       .  S
O1589      C1608   1.279       .  A
O1590     Zr1598   2.590       .  S
O1590      C1609   1.316       .  A
O1591      C1608   1.275       .  A
O1592     Zr1600   2.416       .  S
O1592      C1607   1.279       .  A
O1593     Zr1598   2.412       .  S
O1593     Zr1600   2.388       .  S
O1594     Zr1599   2.379       .  S
O1594     Zr1600   2.382       .  S
O1594      H1629   0.967       .  S
O1595     Zr1598   2.411       .  S
O1595     Zr1615   2.386       .  S
O1595      H1632   0.992       .  S
O1596     Zr1599   2.394       .  S
O1596     Zr1615   2.396       .  S
Zr1597     O1622   2.440       .  S
Zr1597     O1616   2.421       .  S
Zr1597     O1624   2.440       .  S
Zr1597     O1612   2.360       .  S
Zr1597     O1603   2.384       .  S
Zr1597     O1604   2.421       .  S
Zr1597     O1605   2.393       .  S
Zr1597     O1606   2.376       .  S
Zr1598     O1617   2.436       .  S
Zr1598     O1610   2.434       .  S
Zr1598     O1611   2.586       .  S
Zr1598     O1604   2.423       .  S
Zr1598     O1605   2.383       .  S
Zr1599     O1601   2.437       .  S
Zr1599     O1623   2.438       .  S
Zr1599     O1625   2.428       .  S
Zr1599     O1603   2.392       .  S
Zr1599     O1606   2.388       .  S
Zr1600     O1626   2.436       .  S
Zr1600     O1627   2.436       .  S
Zr1600     O1602   2.438       .  S
Zr1600     O1603   2.414       .  S
Zr1600     O1604   2.386       .  S
O1601      H1638   0.990       .  S
O1602      H1633   0.990       .  S
O1602      H1647   0.990       .  S
O1604      H1630   0.955       .  S
O1605     Zr1615   2.354       .  S
O1606     Zr1615   2.363       .  S
O1606      H1631   0.966       .  S
C1607      C3441   1.432       .  S
C1608      C3404   1.415       .  S
C1609      C3353   1.494       .  S
O1610      H1646   0.990       .  S
O1611      C1613   1.315       .  A
O1612      C1613   1.268       .  A
C1613      C3357   1.471       .  S
O1614     Zr1615   2.437       .  S
O1614      H1643   0.990       .  S
Zr1615     O1618   2.436       .  S
Zr1615     O1619   2.438       .  S
Zr1615     O1620   2.435       .  S
O1616      C1621   1.279       .  A
O1617      H1634   0.990       .  S
O1617      H1649   0.991       .  S
O1618      H1635   0.991       .  S
O1619      H1639   0.990       .  S
O1619      H1648   0.990       .  S
O1620      C1621   1.285       .  A
C1621      C3601   1.427       .  S
O1622      H1641   0.990       .  S
O1622      H1645   0.991       .  S
O1623      H1637   0.990       .  S
O1623      H1644   0.990       .  S
O1624      C1628   1.284       .  A
O1625      C1628   1.281       .  A
O1626      H1636   0.990       .  S
O1627      H1640   0.990       .  S
C1628      C3596   1.433       .  S
Zr1651     O1652   2.445       .  S
Zr1651     O1653   2.439       .  S
Zr1651     O1654   2.426       .  S
Zr1651     O1657   2.443       .  S
Zr1651     O1659   2.395       .  S
Zr1651     O1660   2.390       .  S
Zr1651     O1661   2.417       .  S
Zr1651     O1662   2.395       .  S
O1652      H1708   0.991       .  S
O1652      H1716   0.990       .  S
O1653      C1673   1.282       .  A
O1654      C1675   1.280       .  A
O1655     Zr1665   2.407       .  S
O1655      C1674   1.277       .  A
O1656     Zr1664   2.546       .  S
O1656      C1675   1.307       .  A
O1657      C1674   1.283       .  A
O1658     Zr1666   2.419       .  S
O1658      C1673   1.279       .  A
O1659     Zr1664   2.424       .  S
O1659     Zr1666   2.395       .  S
O1660     Zr1665   2.389       .  S
O1660     Zr1666   2.385       .  S
O1660      H1695   0.968       .  S
O1661     Zr1664   2.423       .  S
O1661     Zr1681   2.380       .  S
O1661      H1698   0.967       .  S
O1662     Zr1665   2.395       .  S
O1662     Zr1681   2.370       .  S
Zr1663     O1688   2.440       .  S
Zr1663     O1682   2.439       .  S
Zr1663     O1690   2.399       .  S
Zr1663     O1678   2.352       .  S
Zr1663     O1669   2.394       .  S
Zr1663     O1670   2.408       .  S
Zr1663     O1671   2.383       .  S
Zr1663     O1672   2.384       .  S
Zr1664     O1683   2.437       .  S
Zr1664     O1676   2.434       .  S
Zr1664     O1677   2.603       .  S
Zr1664     O1670   2.402       .  S
Zr1664     O1671   2.376       .  S
Zr1665     O1667   2.439       .  S
Zr1665     O1689   2.435       .  S
Zr1665     O1691   2.440       .  S
Zr1665     O1669   2.379       .  S
Zr1665     O1672   2.379       .  S
Zr1666     O1692   2.436       .  S
Zr1666     O1693   2.441       .  S
Zr1666     O1668   2.436       .  S
Zr1666     O1669   2.401       .  S
Zr1666     O1670   2.391       .  S
O1667      H1704   0.991       .  S
O1668      H1699   0.990       .  S
O1668      H1713   0.991       .  S
O1670      H1696   0.966       .  S
O1671     Zr1681   2.383       .  S
O1672     Zr1681   2.366       .  S
O1672      H1697   0.964       .  S
C1673      C3592   1.432       .  S
C1674      C3616   1.418       .  S
C1675      C3360   1.477       .  S
O1676      H1712   0.989       .  S
O1677      C1679   1.320       .  A
O1678      C1679   1.269       .  A
C1679      C3352   1.480       .  S
O1680     Zr1681   2.440       .  S
O1680      H1709   0.991       .  S
Zr1681     O1684   2.436       .  S
Zr1681     O1685   2.442       .  S
Zr1681     O1686   2.410       .  S
O1682      C1687   1.279       .  A
O1683      H1700   0.990       .  S
O1683      H1715   0.990       .  S
O1684      H1701   0.990       .  S
O1685      H1705   0.990       .  S
O1685      H1714   0.990       .  S
O1686      C1687   1.272       .  A
C1687      C3684   1.429       .  S
O1688      H1707   0.991       .  S
O1688      H1711   0.991       .  S
O1689      H1703   0.991       .  S
O1689      H1710   0.991       .  S
O1690      C1694   1.278       .  A
O1691      C1694   1.283       .  A
O1692      H1702   0.989       .  S
O1693      H1706   0.989       .  S
C1694      C3677   1.419       .  S
Zr1717     O1718   2.446       .  S
Zr1717     O1719   2.433       .  S
Zr1717     O1720   2.395       .  S
Zr1717     O1723   2.416       .  S
Zr1717     O1725   2.394       .  S
Zr1717     O1726   2.367       .  S
Zr1717     O1727   2.409       .  S
Zr1717     O1728   2.395       .  S
O1718      H1774   0.991       .  S
O1718      H1782   0.990       .  S
O1719      C1739   1.281       .  A
O1720      C1741   1.273       .  A
O1721     Zr1731   2.413       .  S
O1721      C1740   1.278       .  A
O1722     Zr1730   2.572       .  S
O1722      C1741   1.313       .  A
O1723      C1740   1.279       .  A
O1724     Zr1732   2.431       .  S
O1724      C1739   1.281       .  A
O1725     Zr1730   2.423       .  S
O1725     Zr1732   2.389       .  S
O1726     Zr1731   2.382       .  S
O1726     Zr1732   2.376       .  S
O1726      H1761   0.968       .  S
O1727     Zr1730   2.407       .  S
O1727     Zr1747   2.380       .  S
O1727      H1764   0.968       .  S
O1728     Zr1731   2.395       .  S
O1728     Zr1747   2.394       .  S
Zr1729     O1754   2.437       .  S
Zr1729     O1748   2.418       .  S
Zr1729     O1756   2.443       .  S
Zr1729     O1744   2.375       .  S
Zr1729     O1735   2.385       .  S
Zr1729     O1736   2.416       .  S
Zr1729     O1737   2.391       .  S
Zr1729     O1738   2.379       .  S
Zr1730     O1749   2.436       .  S
Zr1730     O1742   2.435       .  S
Zr1730     O1743   2.586       .  S
Zr1730     O1736   2.420       .  S
Zr1730     O1737   2.378       .  S
Zr1731     O1733   2.434       .  S
Zr1731     O1755   2.435       .  S
Zr1731     O1757   2.425       .  S
Zr1731     O1735   2.391       .  S
Zr1731     O1738   2.384       .  S
Zr1732     O1758   2.437       .  S
Zr1732     O1759   2.435       .  S
Zr1732     O1734   2.436       .  S
Zr1732     O1735   2.409       .  S
Zr1732     O1736   2.399       .  S
O1733      H1770   0.991       .  S
O1734      H1765   0.990       .  S
O1734      H1779   0.990       .  S
O1736      H1762   0.971       .  S
O1737     Zr1747   2.362       .  S
O1738     Zr1747   2.364       .  S
O1738      H1763   0.966       .  S
C1739      C3669   1.438       .  S
C1740      C3700   1.422       .  S
C1741      C3349   1.484       .  S
O1742      H1778   0.990       .  S
O1743      C1745   1.317       .  A
O1744      C1745   1.273       .  A
C1745      C3341   1.482       .  S
O1746     Zr1747   2.436       .  S
O1746      H1775   0.991       .  S
Zr1747     O1750   2.442       .  S
Zr1747     O1751   2.438       .  S
Zr1747     O1752   2.419       .  S
O1748      C1753   1.278       .  A
O1749      H1766   0.990       .  S
O1749      H1781   0.989       .  S
O1750      H1767   0.990       .  S
O1751      H1771   0.989       .  S
O1751      H1780   0.990       .  S
O1752      C1753   1.281       .  A
C1753      C3345   1.423       .  S
O1754      H1773   0.990       .  S
O1754      H1777   0.991       .  S
O1755      H1769   0.990       .  S
O1755      H1776   0.991       .  S
O1756      C1760   1.285       .  A
O1757      C1760   1.282       .  A
O1758      H1768   0.991       .  S
O1759      H1772   0.990       .  S
C1760      C3340   1.435       .  S
Zr1783     O1784   2.445       .  S
Zr1783     O1785   2.448       .  S
Zr1783     O1786   2.367       .  S
Zr1783     O1789   2.404       .  S
Zr1783     O1791   2.375       .  S
Zr1783     O1792   2.380   1_565  S
Zr1783     O1793   2.410       .  S
Zr1783     O1794   2.397       .  S
O1784      H1840   0.991       .  S
O1784      H1848   0.991       .  S
O1785      C1805   1.284       .  A
O1786      C1807   1.269       .  A
O1787     Zr1797   2.444   1_565  S
O1787      C1806   1.284       .  A
O1788     Zr1796   2.619   1_565  S
O1788      C1807   1.323       .  A
O1789      C1806   1.279       .  A
O1790     Zr1798   2.414       .  S
O1790      C1805   1.276   1_545  A
O1791     Zr1796   2.380   1_565  S
O1791     Zr1798   2.383   1_565  S
O1792     Zr1797   2.383       .  S
O1792     Zr1798   2.354       .  S
O1792      H1827   0.963   1_545  S
O1793     Zr1796   2.407   1_565  S
O1793     Zr1813   2.384       .  S
O1793      H1830   0.963       .  S
O1794     Zr1797   2.399   1_565  S
O1794     Zr1813   2.407       .  S
Zr1795     O1820   2.446       .  S
Zr1795     O1814   2.447       .  S
Zr1795     O1822   2.447       .  S
Zr1795     O1810   2.425       .  S
Zr1795     O1801   2.399       .  S
Zr1795     O1802   2.419       .  S
Zr1795     O1803   2.397       .  S
Zr1795     O1804   2.380       .  S
Zr1796     O1815   2.434       .  S
Zr1796     O1808   2.435       .  S
Zr1796     O1809   2.574       .  S
Zr1796     O1802   2.426       .  S
Zr1796     O1803   2.428       .  S
Zr1797     O1799   2.436       .  S
Zr1797     O1821   2.444       .  S
Zr1797     O1823   2.420       .  S
Zr1797     O1801   2.397       .  S
Zr1797     O1804   2.397       .  S
Zr1798     O1824   2.435       .  S
Zr1798     O1825   2.435       .  S
Zr1798     O1800   2.436       .  S
Zr1798     O1801   2.386       .  S
Zr1798     O1802   2.365       .  S
O1799      H1836   0.990   1_545  S
O1800      H1831   0.990       .  S
O1800      H1845   0.990       .  S
O1802      H1828   0.967       .  S
O1803     Zr1813   2.392   1_545  S
O1804     Zr1813   2.382   1_545  S
O1804      H1829   0.967       .  S
C1805      C3400   1.430       .  S
C1806      C3456   1.422       .  S
C1807      C3356   1.491       .  S
O1808      H1844   0.990       .  S
O1809      C1811   1.314       .  A
O1810      C1811   1.281       .  A
C1811      C3344   1.485       .  S
O1812     Zr1813   2.440       .  S
O1812      H1841   0.989       .  S
Zr1813     O1816   2.435       .  S
Zr1813     O1817   2.437       .  S
Zr1813     O1818   2.420   1_565  S
O1814      C1819   1.282       .  A
O1815      H1832   0.990   1_545  S
O1815      H1847   0.991   1_545  S
O1816      H1833   0.990   1_565  S
O1817      H1837   0.990       .  S
O1817      H1846   0.989       .  S
O1818      C1819   1.279       .  A
C1819      C3333   1.438       .  S
O1820      H1839   0.991       .  S
O1820      H1843   0.991       .  S
O1821      H1835   0.990       .  S
O1821      H1842   0.991       .  S
O1822      C1826   1.284       .  A
O1823      C1826   1.280       .  A
O1824      H1834   0.990       .  S
O1825      H1838   0.990       .  S
C1826      C3329   1.434       .  S
Zr1849     O1850   2.441       .  S
Zr1849     O1851   2.443       .  S
Zr1849     O1852   2.434       .  S
Zr1849     O1855   2.439       .  S
Zr1849     O1857   2.363       .  S
Zr1849     O1858   2.399       .  S
Zr1849     O1859   2.419       .  S
Zr1849     O1860   2.363       .  S
O1850      H1906   0.990       .  S
O1850      H1914   0.990       .  S
O1851      C1871   1.284       .  A
O1852      C1873   1.281       .  A
O1853     Zr1863   2.561       .  S
O1853      C1872   1.311       .  A
O1854     Zr1862   2.422       .  S
O1854      C1873   1.281       .  A
O1855      C1872   1.284       .  A
O1856     Zr1864   2.414       .  S
O1856      C1871   1.277       .  A
O1857     Zr1862   2.388       .  S
O1857     Zr1864   2.368       .  S
O1858     Zr1863   2.421       .  S
O1858     Zr1864   2.406       .  S
O1858      H1893   0.964       .  S
O1859     Zr1862   2.404       .  S
O1859     Zr1879   2.437   1_556  S
O1859      H1896   0.964       .  S
O1860     Zr1863   2.349       .  S
O1860     Zr1879   2.347   1_556  S
Zr1861     O1886   2.439       .  S
Zr1861     O1880   2.421   1_556  S
Zr1861     O1888   2.391       .  S
Zr1861     O1876   2.405   1_556  S
Zr1861     O1867   2.388       .  S
Zr1861     O1868   2.401       .  S
Zr1861     O1869   2.364   1_556  S
Zr1861     O1870   2.386   1_556  S
Zr1862     O1881   2.441       .  S
Zr1862     O1874   2.439       .  S
Zr1862     O1875   2.443   1_556  S
Zr1862     O1868   2.397       .  S
Zr1862     O1869   2.376   1_556  S
Zr1863     O1865   2.434       .  S
Zr1863     O1887   2.437       .  S
Zr1863     O1889   2.556       .  S
Zr1863     O1867   2.381       .  S
Zr1863     O1870   2.401   1_556  S
Zr1864     O1890   2.435       .  S
Zr1864     O1891   2.436       .  S
Zr1864     O1866   2.438       .  S
Zr1864     O1867   2.382       .  S
Zr1864     O1868   2.410       .  S
O1865      H1902   0.990   1_556  S
O1866      H1897   0.990       .  S
O1866      H1911   0.990       .  S
O1868      H1894   0.964       .  S
O1869     Zr1879   2.341       .  S
O1870     Zr1879   2.403       .  S
O1870      H1895   0.971       .  S
C1871      C3364   1.435       .  S
C1872      C3320   1.477       .  S
C1873      C3380   1.434       .  S
O1874      H1910   0.989       .  S
O1875      C1877   1.284       .  A
O1876      C1877   1.278       .  A
C1877      C3313   1.422       .  S
O1878     Zr1879   2.435       .  S
O1878      H1907   0.990   1_554  S
Zr1879     O1882   2.435       .  S
Zr1879     O1883   2.437       .  S
Zr1879     O1884   2.444       .  S
O1880      C1885   1.281       .  A
O1881      H1898   0.990       .  S
O1881      H1913   0.990       .  S
O1882      H1899   0.990       .  S
O1883      H1903   0.989       .  S
O1883      H1912   0.990       .  S
O1884      C1885   1.285       .  A
C1885      C3325   1.438       .  S
O1886      H1905   0.990       .  S
O1886      H1909   0.989   1_556  S
O1887      H1901   0.990       .  S
O1887      H1908   0.990       .  S
O1888      C1892   1.276       .  A
O1889      C1892   1.309       .  A
O1890      H1900   0.990       .  S
O1891      H1904   0.990       .  S
C1892      C3324   1.473       .  S
Zr1915     O1916   2.440       .  S
Zr1915     O1917   2.409       .  S
Zr1915     O1918   2.415       .  S
Zr1915     O1921   2.392       .  S
Zr1915     O1923   2.354   1_455  S
Zr1915     O1924   2.385   1_455  S
Zr1915     O1925   2.401       .  S
Zr1915     O1926   2.386       .  S
O1916      H1972   0.990       .  S
O1916      H1980   0.990       .  S
O1917      C1937   1.278   1_455  A
O1918      C1939   1.279       .  A
O1919     Zr1929   2.563   1_455  S
O1919      C1938   1.310       .  A
O1920     Zr1928   2.449       .  S
O1920      C1939   1.286   1_655  A
O1921      C1938   1.275       .  A
O1922     Zr1930   2.430       .  S
O1922      C1937   1.282       .  A
O1923     Zr1928   2.365       .  S
O1923     Zr1930   2.334       .  S
O1924     Zr1929   2.398       .  S
O1924     Zr1930   2.401       .  S
O1924      H1959   0.960       .  S
O1925     Zr1928   2.399   1_455  S
O1925     Zr1945   2.418       .  S
O1925      H1962   0.964       .  S
O1926     Zr1929   2.380   1_455  S
O1926     Zr1945   2.376       .  S
Zr1927     O1952   2.440       .  S
Zr1927     O1946   2.439       .  S
Zr1927     O1954   2.442       .  S
Zr1927     O1942   2.443       .  S
Zr1927     O1933   2.371       .  S
Zr1927     O1934   2.414       .  S
Zr1927     O1935   2.369       .  S
Zr1927     O1936   2.400       .  S
Zr1928     O1947   2.435       .  S
Zr1928     O1940   2.434       .  S
Zr1928     O1941   2.417       .  S
Zr1928     O1934   2.406       .  S
Zr1928     O1935   2.394       .  S
Zr1929     O1931   2.437   1_556  S
Zr1929     O1953   2.435   1_556  S
Zr1929     O1955   2.559   1_556  S
Zr1929     O1933   2.362       .  S
Zr1929     O1936   2.418       .  S
Zr1930     O1956   2.440       .  S
Zr1930     O1957   2.438       .  S
Zr1930     O1932   2.437       .  S
Zr1930     O1933   2.355       .  S
Zr1930     O1934   2.432       .  S
O1931      H1968   0.990       .  S
O1932      H1963   0.990       .  S
O1932      H1977   0.989       .  S
O1934      H1960   0.966       .  S
O1935     Zr1945   2.370   1_655  S
O1936     Zr1945   2.406   1_655  S
O1936      H1961   0.969       .  S
C1937      C3372   1.426       .  S
C1938      C3317   1.475       .  S
C1939      C3365   1.428       .  S
O1940      H1976   0.990       .  S
O1941      C1943   1.280       .  A
O1942      C1943   1.283       .  A
C1943      C3580   1.435       .  S
O1944     Zr1945   2.435       .  S
O1944      H1973   0.990       .  S
Zr1945     O1948   2.437       .  S
Zr1945     O1949   2.439       .  S
Zr1945     O1950   2.420   1_455  S
O1946      C1951   1.284       .  A
O1947      H1964   0.990       .  S
O1947      H1979   0.990       .  S
O1948      H1965   0.990       .  S
O1949      H1969   0.990       .  S
O1949      H1978   0.990       .  S
O1950      C1951   1.278       .  A
C1951      C3528   1.435       .  S
O1952      H1971   0.991       .  S
O1952      H1975   0.990       .  S
O1953      H1967   0.990       .  S
O1953      H1974   0.989       .  S
O1954      C1958   1.286       .  A
O1955      C1958   1.310   1_554  A
O1956      H1966   0.990       .  S
O1957      H1970   0.990       .  S
C1958      C3309   1.479   1_556  S
Zr1981     O1982   2.441       .  S
Zr1981     O1983   2.438       .  S
Zr1981     O1984   2.442       .  S
Zr1981     O1987   2.447       .  S
Zr1981     O1989   2.371       .  S
Zr1981     O1990   2.399       .  S
Zr1981     O1991   2.421       .  S
Zr1981     O1992   2.373       .  S
O1982      H2038   0.991       .  S
O1982      H2046   0.991       .  S
O1983      C2003   1.283       .  A
O1984      C2005   1.283       .  A
O1985     Zr1995   2.537       .  S
O1985      C2004   1.306       .  A
O1986     Zr1994   2.433       .  S
O1986      C2005   1.283       .  A
O1987      C2004   1.287       .  A
O1988     Zr1996   2.428       .  S
O1988      C2003   1.280       .  A
O1989     Zr1994   2.398       .  S
O1989     Zr1996   2.367       .  S
O1990     Zr1995   2.418       .  S
O1990     Zr1996   2.398       .  S
O1990      H2025   0.971       .  S
O1991     Zr1994   2.406       .  S
O1991     Zr2011   2.433   1_554  S
O1991      H2028   0.965       .  S
O1992     Zr1995   2.372       .  S
O1992     Zr2011   2.354   1_554  S
Zr1993     O2018   2.439       .  S
Zr1993     O2012   2.432   1_554  S
Zr1993     O2020   2.397   1_554  S
Zr1993     O2008   2.396   1_554  S
Zr1993     O1999   2.391       .  S
Zr1993     O2000   2.410       .  S
Zr1993     O2001   2.363   1_554  S
Zr1993     O2002   2.384   1_554  S
Zr1994     O2013   2.435       .  S
Zr1994     O2006   2.436       .  S
Zr1994     O2007   2.454       .  S
Zr1994     O2000   2.398       .  S
Zr1994     O2001   2.372   1_554  S
Zr1995     O1997   2.434   1_554  S
Zr1995     O2019   2.437       .  S
Zr1995     O2021   2.562       .  S
Zr1995     O1999   2.368       .  S
Zr1995     O2002   2.403   1_554  S
Zr1996     O2022   2.437       .  S
Zr1996     O2023   2.434       .  S
Zr1996     O1998   2.435       .  S
Zr1996     O1999   2.374       .  S
Zr1996     O2000   2.423       .  S
O1997      H2034   0.990   1_556  S
O1998      H2029   0.990       .  S
O1998      H2043   0.990       .  S
O2000      H2026   0.967       .  S
O2001     Zr2011   2.347       .  S
O2002     Zr2011   2.399       .  S
O2002      H2027   0.964       .  S
C2003      C3337   1.439       .  S
C2004      C3305   1.472       .  S
C2005      C3336   1.440       .  S
O2006      H2042   0.990       .  S
O2007      C2009   1.287   1_554  A
O2008      C2009   1.276       .  A
C2009      C3529   1.426       .  S
O2010     Zr2011   2.437       .  S
O2010      H2039   0.990   1_556  S
Zr2011     O2014   2.434       .  S
Zr2011     O2015   2.437       .  S
Zr2011     O2016   2.441       .  S
O2012      C2017   1.283       .  A
O2013      H2030   0.990       .  S
O2013      H2045   0.991       .  S
O2014      H2031   0.990       .  S
O2015      H2035   0.991       .  S
O2015      H2044   0.990       .  S
O2016      C2017   1.284       .  A
C2017      C3565   1.443       .  S
O2018      H2037   0.990       .  S
O2018      H2041   0.990   1_554  S
O2019      H2033   0.991       .  S
O2019      H2040   0.989       .  S
O2020      C2024   1.274   1_556  A
O2021      C2024   1.309       .  A
O2022      H2032   0.990       .  S
O2023      H2036   0.990       .  S
C2024      C3312   1.476       .  S
Zr2047     O2048   2.440       .  S
Zr2047     O2049   2.440       .  S
Zr2047     O2050   2.422       .  S
Zr2047     O2053   2.419       .  S
Zr2047     O2055   2.364       .  S
Zr2047     O2056   2.393       .  S
Zr2047     O2057   2.418       .  S
Zr2047     O2058   2.382       .  S
O2048      H2104   0.990       .  S
O2048      H2112   0.990       .  S
O2049      C2069   1.284       .  A
O2050      C2071   1.279       .  A
O2051     Zr2061   2.553       .  S
O2051      C2070   1.309       .  A
O2052     Zr2060   2.411       .  S
O2052      C2071   1.278       .  A
O2053      C2070   1.280       .  A
O2054     Zr2062   2.428       .  S
O2054      C2069   1.280       .  A
O2055     Zr2060   2.390       .  S
O2055     Zr2062   2.363       .  S
O2056     Zr2061   2.414       .  S
O2056     Zr2062   2.397       .  S
O2056      H2091   0.969       .  S
O2057     Zr2060   2.407       .  S
O2057     Zr2077   2.431       .  S
O2057      H2094   0.970       .  S
O2058     Zr2061   2.371       .  S
O2058     Zr2077   2.361       .  S
Zr2059     O2084   2.439       .  S
Zr2059     O2078   2.418       .  S
Zr2059     O2086   2.382       .  S
Zr2059     O2074   2.413       .  S
Zr2059     O2065   2.392       .  S
Zr2059     O2066   2.403       .  S
Zr2059     O2067   2.355       .  S
Zr2059     O2068   2.389       .  S
Zr2060     O2079   2.436       .  S
Zr2060     O2072   2.438       .  S
Zr2060     O2073   2.447       .  S
Zr2060     O2066   2.399       .  S
Zr2060     O2067   2.369       .  S
Zr2061     O2063   2.434   1_554  S
Zr2061     O2085   2.436   1_554  S
Zr2061     O2087   2.551       .  S
Zr2061     O2065   2.388       .  S
Zr2061     O2068   2.403       .  S
Zr2062     O2088   2.435       .  S
Zr2062     O2089   2.436       .  S
Zr2062     O2064   2.439       .  S
Zr2062     O2065   2.386       .  S
Zr2062     O2066   2.424       .  S
O2063      H2100   0.989       .  S
O2064      H2095   0.991       .  S
O2064      H2109   0.990       .  S
O2066      H2092   0.962       .  S
O2067     Zr2077   2.344       .  S
O2068     Zr2077   2.400       .  S
O2068      H2093   0.966       .  S
C2069      C3304   1.440       .  S
C2070      C3321   1.473   1_554  S
C2071      C3300   1.421       .  S
O2072      H2108   0.990       .  S
O2073      C2075   1.285       .  A
O2074      C2075   1.278       .  A
C2075      C3348   1.428       .  S
O2076     Zr2077   2.435       .  S
O2076      H2105   0.990       .  S
Zr2077     O2080   2.434       .  S
Zr2077     O2081   2.437       .  S
Zr2077     O2082   2.433       .  S
O2078      C2083   1.280       .  A
O2079      H2096   0.989       .  S
O2079      H2111   0.990       .  S
O2080      H2097   0.989       .  S
O2081      H2101   0.990       .  S
O2081      H2110   0.989       .  S
O2082      C2083   1.282       .  A
C2083      C3332   1.433       .  S
O2084      H2103   0.990       .  S
O2084      H2107   0.991       .  S
O2085      H2099   0.991       .  S
O2085      H2106   0.989       .  S
O2086      C2090   1.274       .  A
O2087      C2090   1.308       .  A
O2088      H2098   0.990       .  S
O2089      H2102   0.990       .  S
C2090      C3308   1.468       .  S
Zr2113     O2114   2.446       .  S
Zr2113     O2115   2.442       .  S
Zr2113     O2116   2.412       .  S
Zr2113     O2119   2.436       .  S
Zr2113     O2121   2.368       .  S
Zr2113     O2122   2.394       .  S
Zr2113     O2123   2.426       .  S
Zr2113     O2124   2.353       .  S
O2114      H2170   0.990       .  S
O2114      H2178   0.990       .  S
O2115      C2135   1.283       .  A
O2116      C2137   1.276       .  A
O2117     Zr2127   2.540       .  S
O2117      C2136   1.306       .  A
O2118     Zr2126   2.436       .  S
O2118      C2137   1.282       .  A
O2119      C2136   1.283       .  A
O2120     Zr2128   2.390       .  S
O2120      C2135   1.272       .  A
O2121     Zr2126   2.389       .  S
O2121     Zr2128   2.373       .  S
O2122     Zr2127   2.419       .  S
O2122     Zr2128   2.412       .  S
O2122      H2157   0.964       .  S
O2123     Zr2126   2.399       .  S
O2123     Zr2143   2.430       .  S
O2123      H2160   0.964       .  S
O2124     Zr2127   2.343       .  S
O2124     Zr2143   2.345       .  S
Zr2125     O2150   2.440       .  S
Zr2125     O2144   2.395       .  S
Zr2125     O2152   2.412       .  S
Zr2125     O2140   2.428       .  S
Zr2125     O2131   2.373       .  S
Zr2125     O2132   2.403       .  S
Zr2125     O2133   2.371       .  S
Zr2125     O2134   2.392       .  S
Zr2126     O2145   2.438       .  S
Zr2126     O2138   2.431       .  S
Zr2126     O2139   2.437       .  S
Zr2126     O2132   2.402       .  S
Zr2126     O2133   2.385       .  S
Zr2127     O2129   2.435       .  S
Zr2127     O2151   2.434       .  S
Zr2127     O2153   2.548       .  S
Zr2127     O2131   2.366       .  S
Zr2127     O2134   2.393       .  S
Zr2128     O2154   2.441       .  S
Zr2128     O2155   2.436       .  S
Zr2128     O2130   2.431       .  S
Zr2128     O2131   2.355       .  S
Zr2128     O2132   2.414       .  S
O2129      H2166   0.989       .  S
O2130      H2161   0.990       .  S
O2130      H2175   0.989       .  S
O2132      H2158   0.963       .  S
O2133     Zr2143   2.355       .  S
O2134     Zr2143   2.405       .  S
O2134      H2159   0.969       .  S
C2135      C3561   1.426       .  S
C2136      C3288   1.460       .  S
C2137      C3560   1.429       .  S
O2138      H2174   0.991       .  S
O2139      C2141   1.285       .  A
O2140      C2141   1.281       .  A
C2141      C3281   1.434       .  S
O2142     Zr2143   2.437       .  S
O2142      H2171   0.990       .  S
Zr2143     O2146   2.436       .  S
Zr2143     O2147   2.436       .  S
Zr2143     O2148   2.432       .  S
O2144      C2149   1.276       .  A
O2145      H2162   0.990       .  S
O2145      H2177   0.990       .  S
O2146      H2163   0.989       .  S
O2147      H2167   0.990       .  S
O2147      H2176   0.990       .  S
O2148      C2149   1.283       .  A
C2149      C3293   1.414       .  S
O2150      H2169   0.990       .  S
O2150      H2173   0.990       .  S
O2151      H2165   0.990       .  S
O2151      H2172   0.990       .  S
O2152      C2156   1.279       .  A
O2153      C2156   1.308       .  A
O2154      H2164   0.990       .  S
O2155      H2168   0.990       .  S
C2156      C3289   1.469       .  S
Zr2179     O2180   2.445   1_565  S
Zr2179     O2181   2.429       .  S
Zr2179     O2182   2.405       .  S
Zr2179     O2185   2.405   1_565  S
Zr2179     O2187   2.374       .  S
Zr2179     O2188   2.389       .  S
Zr2179     O2189   2.413       .  S
Zr2179     O2190   2.375       .  S
O2180      H2236   0.991       .  S
O2180      H2244   0.991       .  S
O2181      C2201   1.280       .  A
O2182      C2203   1.274       .  A
O2183     Zr2193   2.540       .  S
O2183      C2202   1.305   1_565  A
O2184     Zr2192   2.436       .  S
O2184      C2203   1.282       .  A
O2185      C2202   1.277       .  A
O2186     Zr2194   2.405       .  S
O2186      C2201   1.276       .  A
O2187     Zr2192   2.400       .  S
O2187     Zr2194   2.361       .  S
O2188     Zr2193   2.392       .  S
O2188     Zr2194   2.410       .  S
O2188      H2223   0.977       .  S
O2189     Zr2192   2.404       .  S
O2189     Zr2209   2.414       .  S
O2189      H2226   0.971       .  S
O2190     Zr2193   2.371       .  S
O2190     Zr2209   2.363       .  S
Zr2191     O2216   2.441       .  S
Zr2191     O2210   2.417       .  S
Zr2191     O2218   2.413       .  S
Zr2191     O2206   2.413       .  S
Zr2191     O2197   2.375       .  S
Zr2191     O2198   2.408       .  S
Zr2191     O2199   2.366       .  S
Zr2191     O2200   2.394       .  S
Zr2192     O2211   2.434       .  S
Zr2192     O2204   2.438       .  S
Zr2192     O2205   2.449       .  S
Zr2192     O2198   2.394       .  S
Zr2192     O2199   2.384       .  S
Zr2193     O2195   2.436       .  S
Zr2193     O2217   2.436       .  S
Zr2193     O2219   2.525       .  S
Zr2193     O2197   2.374       .  S
Zr2193     O2200   2.391       .  S
Zr2194     O2220   2.434       .  S
Zr2194     O2221   2.435       .  S
Zr2194     O2196   2.439       .  S
Zr2194     O2197   2.359       .  S
Zr2194     O2198   2.411       .  S
O2195      H2232   0.990       .  S
O2196      H2227   0.990       .  S
O2196      H2241   0.990       .  S
O2198      H2224   0.967       .  S
O2199     Zr2209   2.357       .  S
O2200     Zr2209   2.398       .  S
O2200      H2225   0.963       .  S
C2201      C3552   1.419       .  S
C2202      C3285   1.459       .  S
C2203      C3584   1.424       .  S
O2204      H2240   0.990       .  S
O2205      C2207   1.287       .  A
O2206      C2207   1.279       .  A
C2207      C3504   1.431       .  S
O2208     Zr2209   2.435   1_545  S
O2208      H2237   0.991       .  S
Zr2209     O2212   2.435       .  S
Zr2209     O2213   2.439       .  S
Zr2209     O2214   2.417       .  S
O2210      C2215   1.281       .  A
O2211      H2228   0.990       .  S
O2211      H2243   0.990       .  S
O2212      H2229   0.990       .  S
O2213      H2233   0.991       .  S
O2213      H2242   0.990       .  S
O2214      C2215   1.279       .  A
C2215      C3476   1.419       .  S
O2216      H2235   0.990       .  S
O2216      H2239   0.989       .  S
O2217      H2231   0.990       .  S
O2217      H2238   0.990       .  S
O2218      C2222   1.278       .  A
O2219      C2222   1.302       .  A
O2220      H2230   0.989       .  S
O2221      H2234   0.990       .  S
C2222      C3280   1.458       .  S
Zr2245     O2246   2.443       .  S
Zr2245     O2247   2.422       .  S
Zr2245     O2248   2.437       .  S
Zr2245     O2251   2.427       .  S
Zr2245     O2253   2.387       .  S
Zr2245     O2254   2.413       .  S
Zr2245     O2255   2.415       .  S
Zr2245     O2256   2.375       .  S
O2246      H2302   0.990       .  S
O2246      H2310   0.992       .  S
O2247      C2267   1.270       .  A
O2248      C2269   1.281       .  A
O2249     Zr2259   2.533       .  S
O2249      C2268   1.304       .  A
O2250     Zr2258   2.425       .  S
O2250      C2269   1.281       .  A
O2251      C2268   1.282       .  A
O2252     Zr2260   2.426       .  S
O2252      C2267   1.268       .  A
O2253     Zr2258   2.382       .  S
O2253     Zr2260   2.392       .  S
O2254     Zr2259   2.419       .  S
O2254     Zr2260   2.419       .  S
O2254      H2289   0.962       .  S
O2255     Zr2258   2.411       .  S
O2255     Zr2275   2.398       .  S
O2255      H2292   0.966       .  S
O2256     Zr2259   2.365       .  S
O2256     Zr2275   2.351       .  S
Zr2257     O2282   2.441       .  S
Zr2257     O2276   2.448       .  S
Zr2257     O2284   2.428       .  S
Zr2257     O2272   2.419       .  S
Zr2257     O2263   2.378       .  S
Zr2257     O2264   2.426       .  S
Zr2257     O2265   2.367       .  S
Zr2257     O2266   2.393       .  S
Zr2258     O2277   2.438       .  S
Zr2258     O2270   2.434       .  S
Zr2258     O2271   2.447       .  S
Zr2258     O2264   2.403       .  S
Zr2258     O2265   2.381       .  S
Zr2259     O2261   2.436       .  S
Zr2259     O2283   2.437       .  S
Zr2259     O2285   2.545       .  S
Zr2259     O2263   2.359       .  S
Zr2259     O2266   2.419       .  S
Zr2260     O2286   2.437       .  S
Zr2260     O2287   2.436       .  S
Zr2260     O2262   2.437       .  S
Zr2260     O2263   2.366       .  S
Zr2260     O2264   2.436       .  S
O2261      H2298   0.989       .  S
O2262      H2293   0.991       .  S
O2262      H2307   0.990       .  S
O2264      H2290   0.964       .  S
O2265     Zr2275   2.365       .  S
O2266     Zr2275   2.404       .  S
O2266      H2291   0.961       .  S
C2267      C3496   1.431       .  S
C2268      C3277   1.459       .  S
C2269      C3488   1.431       .  S
O2270      H2306   0.990       .  S
O2271      C2273   1.283       .  A
O2272      C2273   1.278       .  A
C2273      C3265   1.440       .  S
O2274     Zr2275   2.435       .  S
O2274      H2303   0.990       .  S
Zr2275     O2278   2.436       .  S
Zr2275     O2279   2.439       .  S
Zr2275     O2280   2.386       .  S
O2276      C2281   1.283       .  A
O2277      H2294   0.990       .  S
O2277      H2309   0.990       .  S
O2278      H2295   0.990       .  S
O2279      H2299   0.990       .  S
O2279      H2308   0.991       .  S
O2280      C2281   1.272       .  A
C2281      C3273   1.426       .  S
O2282      H2301   0.989       .  S
O2282      H2305   0.991       .  S
O2283      H2297   0.991       .  S
O2283      H2304   0.990       .  S
O2284      C2288   1.283       .  A
O2285      C2288   1.307       .  A
O2286      H2296   0.990       .  S
O2287      H2300   0.990       .  S
C2288      C3269   1.465       .  S
Zr2311     O2312   2.441       .  S
Zr2311     O2313   2.438       .  S
Zr2311     O2314   2.431       .  S
Zr2311     O2317   2.427       .  S
Zr2311     O2319   2.369       .  S
Zr2311     O2320   2.394       .  S
Zr2311     O2321   2.416       .  S
Zr2311     O2322   2.375       .  S
O2312      H2368   0.990       .  S
O2312      H2376   0.991       .  S
O2313      C2333   1.283       .  A
O2314      C2335   1.281       .  A
O2315     Zr2325   2.549       .  S
O2315      C2334   1.308       .  A
O2316     Zr2324   2.409       .  S
O2316      C2335   1.278       .  A
O2317      C2334   1.282       .  A
O2318     Zr2326   2.424       .  S
O2318      C2333   1.280       .  A
O2319     Zr2324   2.396       .  S
O2319     Zr2326   2.368       .  S
O2320     Zr2325   2.403       .  S
O2320     Zr2326   2.408       .  S
O2320      H2355   0.969       .  S
O2321     Zr2324   2.396       .  S
O2321     Zr2341   2.421       .  S
O2321      H2358   0.968       .  S
O2322     Zr2325   2.363       .  S
O2322     Zr2341   2.358       .  S
Zr2323     O2348   2.443       .  S
Zr2323     O2342   2.407       .  S
Zr2323     O2350   2.410       .  S
Zr2323     O2338   2.413       .  S
Zr2323     O2329   2.373       .  S
Zr2323     O2330   2.405       .  S
Zr2323     O2331   2.372       .  S
Zr2323     O2332   2.390       .  S
Zr2324     O2343   2.437       .  S
Zr2324     O2336   2.434       .  S
Zr2324     O2337   2.419       .  S
Zr2324     O2330   2.401       .  S
Zr2324     O2331   2.384       .  S
Zr2325     O2327   2.435       .  S
Zr2325     O2349   2.438       .  S
Zr2325     O2351   2.533       .  S
Zr2325     O2329   2.384       .  S
Zr2325     O2332   2.403       .  S
Zr2326     O2352   2.433       .  S
Zr2326     O2353   2.436       .  S
Zr2326     O2328   2.439       .  S
Zr2326     O2329   2.372       .  S
Zr2326     O2330   2.414       .  S
O2327      H2364   0.990       .  S
O2328      H2359   0.990       .  S
O2328      H2373   0.990       .  S
O2330      H2356   0.969       .  S
O2331     Zr2341   2.358       .  S
O2332     Zr2341   2.403       .  S
O2332      H2357   0.964       .  S
C2333      C3264   1.431       .  S
C2334      C3292   1.469       .  S
C2335      C3249   1.425       .  S
O2336      H2372   0.989       .  S
O2337      C2339   1.279       .  A
O2338      C2339   1.277       .  A
C2339      C3253   1.423       .  S
O2340     Zr2341   2.435       .  S
O2340      H2369   0.990       .  S
Zr2341     O2344   2.435       .  S
Zr2341     O2345   2.439       .  S
Zr2341     O2346   2.413       .  S
O2342      C2347   1.276       .  A
O2343      H2360   0.991       .  S
O2343      H2375   0.990       .  S
O2344      H2361   0.990       .  S
O2345      H2365   0.990       .  S
O2345      H2374   0.990       .  S
O2346      C2347   1.277       .  A
C2347      C3257   1.417       .  S
O2348      H2367   0.990       .  S
O2348      H2371   0.991       .  S
O2349      H2363   0.990       .  S
O2349      H2370   0.990       .  S
O2350      C2354   1.278       .  A
O2351      C2354   1.304       .  A
O2352      H2362   0.990       .  S
O2353      H2366   0.990       .  S
C2354      C3272   1.464       .  S
Zr2377     O2378   2.445       .  S
Zr2377     O2379   2.451       .  S
Zr2377     O2380   2.414       .  S
Zr2377     O2383   2.426       .  S
Zr2377     O2385   2.395       .  S
Zr2377     O2386   2.381       .  S
Zr2377     O2387   2.421       .  S
Zr2377     O2388   2.397       .  S
O2378      H2434   0.991       .  S
O2378      H2442   0.990       .  S
O2379      C2399   1.285       .  A
O2380      C2401   1.278       .  A
O2381     Zr2391   2.396       .  S
O2381      C2400   1.275       .  A
O2382     Zr2390   2.565       .  S
O2382      C2401   1.312       .  A
O2383      C2400   1.282       .  A
O2384     Zr2392   2.419       .  S
O2384      C2399   1.279       .  A
O2385     Zr2390   2.422       .  S
O2385     Zr2392   2.372       .  S
O2386     Zr2391   2.391       .  S
O2386     Zr2392   2.385       .  S
O2386      H2421   0.967       .  S
O2387     Zr2390   2.423       .  S
O2387     Zr2407   2.381       .  S
O2387      H2424   0.968       .  S
O2388     Zr2391   2.399       .  S
O2388     Zr2407   2.395       .  S
Zr2389     O2414   2.436       .  S
Zr2389     O2408   2.409       .  S
Zr2389     O2416   2.436       .  S
Zr2389     O2404   2.357       .  S
Zr2389     O2395   2.378   1_554  S
Zr2389     O2396   2.410       .  S
Zr2389     O2397   2.394   1_554  S
Zr2389     O2398   2.371   1_554  S
Zr2390     O2409   2.436       .  S
Zr2390     O2402   2.434       .  S
Zr2390     O2403   2.610   1_556  S
Zr2390     O2396   2.408   1_556  S
Zr2390     O2397   2.370       .  S
Zr2391     O2393   2.435       .  S
Zr2391     O2415   2.434       .  S
Zr2391     O2417   2.432   1_556  S
Zr2391     O2395   2.385       .  S
Zr2391     O2398   2.369       .  S
Zr2392     O2418   2.434       .  S
Zr2392     O2419   2.439   1_556  S
Zr2392     O2394   2.436       .  S
Zr2392     O2395   2.417       .  S
Zr2392     O2396   2.391   1_556  S
O2393      H2430   0.991       .  S
O2394      H2425   0.989       .  S
O2394      H2439   0.989       .  S
O2396      H2422   0.970       .  S
O2397     Zr2407   2.361       .  S
O2398     Zr2407   2.357       .  S
O2398      H2423   0.966   1_556  S
C2399      C3268   1.438       .  S
C2400      C3260   1.417       .  S
C2401      C3245   1.486       .  S
O2402      H2438   0.990       .  S
O2403      C2405   1.322       .  A
O2404      C2405   1.270       .  A
C2405      C3241   1.485       .  S
O2406     Zr2407   2.439       .  S
O2406      H2435   0.990       .  S
Zr2407     O2410   2.437       .  S
Zr2407     O2411   2.439       .  S
Zr2407     O2412   2.426   1_556  S
O2408      C2413   1.278       .  A
O2409      H2426   0.990       .  S
O2409      H2441   0.990       .  S
O2410      H2427   0.990       .  S
O2411      H2431   0.990       .  S
O2411      H2440   0.990       .  S
O2412      C2413   1.284       .  A
C2413      C3316   1.420       .  S
O2414      H2433   0.991       .  S
O2414      H2437   0.991       .  S
O2415      H2429   0.990       .  S
O2415      H2436   0.989       .  S
O2416      C2420   1.284       .  A
O2417      C2420   1.282       .  A
O2418      H2428   0.989       .  S
O2419      H2432   0.989       .  S
C2420      C3301   1.434       .  S
Zr2443     O2444   2.439       .  S
Zr2443     O2445   2.422       .  S
Zr2443     O2446   2.353       .  S
Zr2443     O2449   2.418       .  S
Zr2443     O2451   2.388       .  S
Zr2443     O2452   2.375       .  S
Zr2443     O2453   2.409       .  S
Zr2443     O2454   2.377       .  S
O2444      H2500   0.990       .  S
O2444      H2508   0.991       .  S
O2445      C2465   1.279       .  A
O2446      C2467   1.267       .  A
O2447     Zr2457   2.413       .  S
O2447      C2466   1.279       .  A
O2448     Zr2456   2.600       .  S
O2448      C2467   1.319       .  A
O2449      C2466   1.280       .  A
O2450     Zr2458   2.412       .  S
O2450      C2465   1.281       .  A
O2451     Zr2456   2.374       .  S
O2451     Zr2458   2.367       .  S
O2452     Zr2457   2.370       .  S
O2452     Zr2458   2.364       .  S
O2452      H2487   0.962       .  S
O2453     Zr2456   2.405       .  S
O2453     Zr2473   2.395       .  S
O2453      H2490   0.969       .  S
O2454     Zr2457   2.393       .  S
O2454     Zr2473   2.405       .  S
Zr2455     O2480   2.441       .  S
Zr2455     O2474   2.432       .  S
Zr2455     O2482   2.442       .  S
Zr2455     O2470   2.404       .  S
Zr2455     O2461   2.390       .  S
Zr2455     O2462   2.412       .  S
Zr2455     O2463   2.397       .  S
Zr2455     O2464   2.372       .  S
Zr2456     O2475   2.434       .  S
Zr2456     O2468   2.434       .  S
Zr2456     O2469   2.559       .  S
Zr2456     O2462   2.419       .  S
Zr2456     O2463   2.418       .  S
Zr2457     O2459   2.433       .  S
Zr2457     O2481   2.438       .  S
Zr2457     O2483   2.397       .  S
Zr2457     O2461   2.386       .  S
Zr2457     O2464   2.382       .  S
Zr2458     O2484   2.435       .  S
Zr2458     O2485   2.438       .  S
Zr2458     O2460   2.439       .  S
Zr2458     O2461   2.396       .  S
Zr2458     O2462   2.371       .  S
O2459      H2496   0.990       .  S
O2460      H2491   0.990       .  S
O2460      H2505   0.990       .  S
O2462      H2488   0.968       .  S
O2463     Zr2473   2.386       .  S
O2464     Zr2473   2.375       .  S
O2464      H2489   0.969       .  S
C2465      C3256   1.418       .  S
C2466      C3276   1.419       .  S
C2467      C3248   1.480       .  S
O2468      H2504   0.991       .  S
O2469      C2471   1.311       .  A
O2470      C2471   1.279       .  A
C2471      C3237   1.474       .  S
O2472     Zr2473   2.442       .  S
O2472      H2501   0.989       .  S
Zr2473     O2476   2.440       .  S
Zr2473     O2477   2.437       .  S
Zr2473     O2478   2.427       .  S
O2474      C2479   1.282       .  A
O2475      H2492   0.990       .  S
O2475      H2507   0.990       .  S
O2476      H2493   0.990       .  S
O2477      H2497   0.990       .  S
O2477      H2506   0.989       .  S
O2478      C2479   1.281       .  A
C2479      C3644   1.432       .  S
O2480      H2499   0.990       .  S
O2480      H2503   0.991       .  S
O2481      H2495   0.991       .  S
O2481      H2502   0.989       .  S
O2482      C2486   1.284       .  A
O2483      C2486   1.276       .  A
O2484      H2494   0.991       .  S
O2485      H2498   0.990       .  S
C2486      C3600   1.424       .  S
Zr2509     O2510   2.437       .  S
Zr2509     O2511   2.401       .  S
Zr2509     O2512   2.375       .  S
Zr2509     O2515   2.431       .  S
Zr2509     O2517   2.392       .  S
Zr2509     O2518   2.374       .  S
Zr2509     O2519   2.410       .  S
Zr2509     O2520   2.383       .  S
O2510      H2566   0.990       .  S
O2510      H2574   0.990       .  S
O2511      C2531   1.275       .  A
O2512      C2533   1.273       .  A
O2513     Zr2523   2.429       .  S
O2513      C2532   1.281       .  A
O2514     Zr2522   2.554       .  S
O2514      C2533   1.310       .  A
O2515      C2532   1.282       .  A
O2516     Zr2524   2.438       .  S
O2516      C2531   1.285       .  A
O2517     Zr2522   2.391       .  S
O2517     Zr2524   2.362       .  S
O2518     Zr2523   2.377       .  S
O2518     Zr2524   2.361       .  S
O2518      H2553   0.965       .  S
O2519     Zr2522   2.417       .  S
O2519     Zr2539   2.395       .  S
O2519      H2556   0.978       .  S
O2520     Zr2523   2.390       .  S
O2520     Zr2539   2.407       .  S
Zr2521     O2546   2.441       .  S
Zr2521     O2540   2.441       .  S
Zr2521     O2548   2.398       .  S
Zr2521     O2536   2.399       .  S
Zr2521     O2527   2.404       .  S
Zr2521     O2528   2.405       .  S
Zr2521     O2529   2.385       .  S
Zr2521     O2530   2.370       .  S
Zr2522     O2541   2.432       .  S
Zr2522     O2534   2.435       .  S
Zr2522     O2535   2.564       .  S
Zr2522     O2528   2.408       .  S
Zr2522     O2529   2.412       .  S
Zr2523     O2525   2.435       .  S
Zr2523     O2547   2.439       .  S
Zr2523     O2549   2.395       .  S
Zr2523     O2527   2.405       .  S
Zr2523     O2530   2.386       .  S
Zr2524     O2550   2.440       .  S
Zr2524     O2551   2.436       .  S
Zr2524     O2526   2.436       .  S
Zr2524     O2527   2.402       .  S
Zr2524     O2528   2.392       .  S
O2525      H2562   0.991       .  S
O2526      H2557   0.990       .  S
O2526      H2571   0.990       .  S
O2528      H2554   0.959       .  S
O2529     Zr2539   2.393       .  S
O2530     Zr2539   2.365       .  S
O2530      H2555   0.968       .  S
C2531      C3588   1.424       .  S
C2532      C3657   1.430       .  S
C2533      C3240   1.469       .  S
O2534      H2570   0.990       .  S
O2535      C2537   1.310       .  A
O2536      C2537   1.276       .  A
C2537      C3232   1.483       .  S
O2538     Zr2539   2.435       .  S
O2538      H2567   0.989       .  S
Zr2539     O2542   2.434       .  S
Zr2539     O2543   2.439       .  S
Zr2539     O2544   2.422       .  S
O2540      C2545   1.283       .  A
O2541      H2558   0.989       .  S
O2541      H2573   0.990       .  S
O2542      H2559   0.989       .  S
O2543      H2563   0.989       .  S
O2543      H2572   0.990       .  S
O2544      C2545   1.280       .  A
C2545      C3233   1.440       .  S
O2546      H2565   0.991       .  S
O2546      H2569   0.990       .  S
O2547      H2561   0.991       .  S
O2547      H2568   0.990       .  S
O2548      C2552   1.276       .  A
O2549      C2552   1.275       .  A
O2550      H2560   0.990       .  S
O2551      H2564   0.990       .  S
C2552      C3228   1.403       .  S
Zr2575     O2576   2.444       .  S
Zr2575     O2577   2.452       .  S
Zr2575     O2578   2.368       .  S
Zr2575     O2581   2.432       .  S
Zr2575     O2583   2.383       .  S
Zr2575     O2584   2.379       .  S
Zr2575     O2585   2.420       .  S
Zr2575     O2586   2.390       .  S
O2576      H2632   0.991       .  S
O2576      H2640   0.990       .  S
O2577      C2597   1.285       .  A
O2578      C2599   1.270       .  A
O2579     Zr2589   2.418       .  S
O2579      C2598   1.280       .  A
O2580     Zr2588   2.589       .  S
O2580      C2599   1.317       .  A
O2581      C2598   1.284       .  A
O2582     Zr2590   2.406       .  S
O2582      C2597   1.279       .  A
O2583     Zr2588   2.387       .  S
O2583     Zr2590   2.372       .  S
O2584     Zr2589   2.391       .  S
O2584     Zr2590   2.361       .  S
O2584      H2619   0.966       .  S
O2585     Zr2588   2.418       .  S
O2585     Zr2605   2.390       .  S
O2585      H2622   0.966       .  S
O2586     Zr2589   2.394       .  S
O2586     Zr2605   2.390       .  S
Zr2587     O2612   2.442       .  S
Zr2587     O2606   2.419       .  S
Zr2587     O2614   2.430       .  S
Zr2587     O2602   2.410       .  S
Zr2587     O2593   2.393       .  S
Zr2587     O2594   2.404       .  S
Zr2587     O2595   2.394       .  S
Zr2587     O2596   2.378       .  S
Zr2588     O2607   2.435       .  S
Zr2588     O2600   2.433       .  S
Zr2588     O2601   2.578       .  S
Zr2588     O2594   2.418       .  S
Zr2588     O2595   2.411       .  S
Zr2589     O2591   2.439       .  S
Zr2589     O2613   2.437       .  S
Zr2589     O2615   2.434       .  S
Zr2589     O2593   2.388       .  S
Zr2589     O2596   2.386       .  S
Zr2590     O2616   2.438       .  S
Zr2590     O2617   2.435       .  S
Zr2590     O2592   2.436       .  S
Zr2590     O2593   2.393       .  S
Zr2590     O2594   2.373       .  S
O2591      H2628   0.989       .  S
O2592      H2623   0.990       .  S
O2592      H2637   0.990       .  S
O2594      H2620   0.965       .  S
O2595     Zr2605   2.394       .  S
O2596     Zr2605   2.374       .  S
O2596      H2621   0.968       .  S
C2597      C3224   1.428       .  S
C2598      C3220   1.424       .  S
C2599      C3229   1.478       .  S
O2600      H2636   0.989       .  S
O2601      C2603   1.314       .  A
O2602      C2603   1.278       .  A
C2603      C3244   1.489       .  S
O2604     Zr2605   2.436       .  S
O2604      H2633   0.991       .  S
Zr2605     O2608   2.435       .  S
Zr2605     O2609   2.439       .  S
Zr2605     O2610   2.405       .  S
O2606      C2611   1.279       .  A
O2607      H2624   0.989       .  S
O2607      H2639   0.990       .  S
O2608      H2625   0.991       .  S
O2609      H2629   0.990       .  S
O2609      H2638   0.990       .  S
O2610      C2611   1.276       .  A
C2611      C3297   1.420       .  S
O2612      H2631   0.991       .  S
O2612      H2635   0.990       .  S
O2613      H2627   0.990       .  S
O2613      H2634   0.991       .  S
O2614      C2618   1.281       .  A
O2615      C2618   1.283       .  A
O2616      H2626   0.990       .  S
O2617      H2630   0.990       .  S
C2618      C3328   1.437       .  S
Zr2641     O2642   2.446       .  S
Zr2641     O2643   2.440       .  S
Zr2641     O2644   2.407       .  S
Zr2641     O2647   2.426       .  S
Zr2641     O2649   2.376       .  S
Zr2641     O2650   2.394       .  S
Zr2641     O2651   2.425       .  S
Zr2641     O2652   2.366       .  S
O2642      H2698   0.991       .  S
O2642      H2706   0.991       .  S
O2643      C2663   1.282       .  A
O2644      C2665   1.274       .  A
O2645     Zr2655   2.566   1_455  S
O2645      C2664   1.312       .  A
O2646     Zr2654   2.448       .  S
O2646      C2665   1.282       .  A
O2647      C2664   1.280   1_655  A
O2648     Zr2656   2.408       .  S
O2648      C2663   1.276       .  A
O2649     Zr2654   2.410       .  S
O2649     Zr2656   2.387       .  S
O2650     Zr2655   2.414       .  S
O2650     Zr2656   2.408       .  S
O2650      H2685   0.972       .  S
O2651     Zr2654   2.406       .  S
O2651     Zr2671   2.422       .  S
O2651      H2688   0.963       .  S
O2652     Zr2655   2.351       .  S
O2652     Zr2671   2.347       .  S
Zr2653     O2678   2.442   1_545  S
Zr2653     O2672   2.418       .  S
Zr2653     O2680   2.411   1_545  S
Zr2653     O2668   2.409       .  S
Zr2653     O2659   2.375       .  S
Zr2653     O2660   2.411       .  S
Zr2653     O2661   2.379       .  S
Zr2653     O2662   2.390       .  S
Zr2654     O2673   2.443       .  S
Zr2654     O2666   2.436       .  S
Zr2654     O2667   2.456       .  S
Zr2654     O2660   2.410       .  S
Zr2654     O2661   2.389       .  S
Zr2655     O2657   2.435   1_655  S
Zr2655     O2679   2.435   1_655  S
Zr2655     O2681   2.548       .  S
Zr2655     O2659   2.389       .  S
Zr2655     O2662   2.394       .  S
Zr2656     O2682   2.435       .  S
Zr2656     O2683   2.437   1_545  S
Zr2656     O2658   2.436       .  S
Zr2656     O2659   2.373       .  S
Zr2656     O2660   2.408       .  S
O2657      H2694   0.989       .  S
O2658      H2689   0.990       .  S
O2658      H2703   0.990       .  S
O2660      H2686   0.968       .  S
O2661     Zr2671   2.346       .  S
O2662     Zr2671   2.400       .  S
O2662      H2687   0.963       .  S
C2663      C3216   1.429       .  S
C2664      C3209   1.474       .  S
C2665      C3204   1.432       .  S
O2666      H2702   0.990       .  S
O2667      C2669   1.282       .  A
O2668      C2669   1.270       .  A
C2669      C3545   1.431       .  S
O2670     Zr2671   2.434       .  S
O2670      H2699   0.990       .  S
Zr2671     O2674   2.435       .  S
Zr2671     O2675   2.439       .  S
Zr2671     O2676   2.409       .  S
O2672      C2677   1.279       .  A
O2673      H2690   0.990       .  S
O2673      H2705   0.991       .  S
O2674      H2691   0.990       .  S
O2675      H2695   0.991       .  S
O2675      H2704   0.990       .  S
O2676      C2677   1.278       .  A
C2677      C3521   1.419       .  S
O2678      H2697   0.992       .  S
O2678      H2701   0.990       .  S
O2679      H2693   0.990       .  S
O2679      H2700   0.990       .  S
O2680      C2684   1.278       .  A
O2681      C2684   1.308   1_545  A
O2682      H2692   0.990       .  S
O2683      H2696   0.991       .  S
C2684      C3205   1.472       .  S
Zr2707     O2708   2.444       .  S
Zr2707     O2709   2.432       .  S
Zr2707     O2710   2.433       .  S
Zr2707     O2713   2.434       .  S
Zr2707     O2715   2.394       .  S
Zr2707     O2716   2.417       .  S
Zr2707     O2717   2.429   1_455  S
Zr2707     O2718   2.366   1_455  S
O2708      H2764   0.990       .  S
O2708      H2772   0.992       .  S
O2709      C2729   1.271       .  A
O2710      C2731   1.278       .  A
O2711     Zr2721   2.556       .  S
O2711      C2730   1.310       .  A
O2712     Zr2720   2.417   1_455  S
O2712      C2731   1.278       .  A
O2713      C2730   1.283   1_455  A
O2714     Zr2722   2.428       .  S
O2714      C2729   1.268       .  A
O2715     Zr2720   2.390   1_455  S
O2715     Zr2722   2.389       .  S
O2716     Zr2721   2.421   1_455  S
O2716     Zr2722   2.415       .  S
O2716      H2751   0.965       .  S
O2717     Zr2720   2.412       .  S
O2717     Zr2737   2.412       .  S
O2717      H2754   0.969       .  S
O2718     Zr2721   2.355       .  S
O2718     Zr2737   2.334       .  S
Zr2719     O2744   2.440       .  S
Zr2719     O2738   2.451       .  S
Zr2719     O2746   2.442       .  S
Zr2719     O2734   2.419       .  S
Zr2719     O2725   2.366       .  S
Zr2719     O2726   2.424       .  S
Zr2719     O2727   2.369       .  S
Zr2719     O2728   2.398       .  S
Zr2720     O2739   2.448       .  S
Zr2720     O2732   2.435   1_655  S
Zr2720     O2733   2.433       .  S
Zr2720     O2726   2.400       .  S
Zr2720     O2727   2.372       .  S
Zr2721     O2723   2.437       .  S
Zr2721     O2745   2.436   1_655  S
Zr2721     O2747   2.558       .  S
Zr2721     O2725   2.350       .  S
Zr2721     O2728   2.420       .  S
Zr2722     O2748   2.435       .  S
Zr2722     O2749   2.434       .  S
Zr2722     O2724   2.436       .  S
Zr2722     O2725   2.358   1_455  S
Zr2722     O2726   2.440   1_455  S
O2723      H2760   0.990       .  S
O2724      H2755   0.989       .  S
O2724      H2769   0.988       .  S
O2726      H2752   0.973       .  S
O2727     Zr2737   2.366       .  S
O2728     Zr2737   2.410       .  S
O2728      H2753   0.961       .  S
C2729      C3460   1.425       .  S
C2730      C3197   1.467       .  S
C2731      C3517   1.426       .  S
O2732      H2768   0.990       .  S
O2733      C2735   1.280       .  A
O2734      C2735   1.277       .  A
C2735      C3533   1.434       .  S
O2736     Zr2737   2.437       .  S
O2736      H2765   0.991       .  S
Zr2737     O2740   2.431       .  S
Zr2737     O2741   2.437       .  S
Zr2737     O2742   2.385       .  S
O2738      C2743   1.285       .  A
O2739      H2756   0.991       .  S
O2739      H2771   0.990       .  S
O2740      H2757   0.991       .  S
O2741      H2761   0.990       .  S
O2741      H2770   0.990       .  S
O2742      C2743   1.272       .  A
C2743      C3537   1.425       .  S
O2744      H2763   0.991       .  S
O2744      H2767   0.991       .  S
O2745      H2759   0.990       .  S
O2745      H2766   0.990       .  S
O2746      C2750   1.285       .  A
O2747      C2750   1.310       .  A
O2748      H2758   0.990       .  S
O2749      H2762   0.989       .  S
C2750      C3208   1.473       .  S
Zr2773     O2774   2.439       .  S
Zr2773     O2775   2.397       .  S
Zr2773     O2776   2.417       .  S
Zr2773     O2779   2.408       .  S
Zr2773     O2781   2.371       .  S
Zr2773     O2782   2.401       .  S
Zr2773     O2783   2.403       .  S
Zr2773     O2784   2.370       .  S
O2774      H2830   0.990       .  S
O2774      H2838   0.990       .  S
O2775      C2795   1.275       .  A
O2776      C2797   1.276       .  A
O2777     Zr2787   2.545       .  S
O2777      C2796   1.307       .  A
O2778     Zr2786   2.456       .  S
O2778      C2797   1.285       .  A
O2779      C2796   1.278       .  A
O2780     Zr2788   2.402       .  S
O2780      C2795   1.277       .  A
O2781     Zr2786   2.373       .  S
O2781     Zr2788   2.340       .  S
O2782     Zr2787   2.391       .  S
O2782     Zr2788   2.415       .  S
O2782      H2817   0.964       .  S
O2783     Zr2786   2.405       .  S
O2783     Zr2803   2.415       .  S
O2783      H2820   0.963       .  S
O2784     Zr2787   2.388       .  S
O2784     Zr2803   2.368       .  S
Zr2785     O2810   2.443       .  S
Zr2785     O2804   2.428       .  S
Zr2785     O2812   2.422   1_455  S
Zr2785     O2800   2.403       .  S
Zr2785     O2791   2.366       .  S
Zr2785     O2792   2.420       .  S
Zr2785     O2793   2.368       .  S
Zr2785     O2794   2.391       .  S
Zr2786     O2805   2.434       .  S
Zr2786     O2798   2.436       .  S
Zr2786     O2799   2.424       .  S
Zr2786     O2792   2.405       .  S
Zr2786     O2793   2.396       .  S
Zr2787     O2789   2.437   1_455  S
Zr2787     O2811   2.435   1_455  S
Zr2787     O2813   2.554   1_455  S
Zr2787     O2791   2.361       .  S
Zr2787     O2794   2.402       .  S
Zr2788     O2814   2.436       .  S
Zr2788     O2815   2.439       .  S
Zr2788     O2790   2.441       .  S
Zr2788     O2791   2.348       .  S
Zr2788     O2792   2.417       .  S
O2789      H2826   0.990       .  S
O2790      H2821   0.990       .  S
O2790      H2835   0.989       .  S
O2792      H2818   0.964       .  S
O2793     Zr2803   2.363       .  S
O2794     Zr2803   2.408       .  S
O2794      H2819   0.979   1_455  S
C2795      C3225   1.403       .  S
C2796      C3193   1.470       .  S
C2797      C3221   1.433       .  S
O2798      H2834   0.989       .  S
O2799      C2801   1.280       .  A
O2800      C2801   1.275       .  A
C2801      C3465   1.419       .  S
O2802     Zr2803   2.436       .  S
O2802      H2831   0.989       .  S
Zr2803     O2806   2.436       .  S
Zr2803     O2807   2.435       .  S
Zr2803     O2808   2.411       .  S
O2804      C2809   1.282       .  A
O2805      H2822   0.990       .  S
O2805      H2837   0.991       .  S
O2806      H2823   0.990       .  S
O2807      H2827   0.989       .  S
O2807      H2836   0.990   1_455  S
O2808      C2809   1.277       .  A
C2809      C3508   1.423   1_455  S
O2810      H2829   0.990       .  S
O2810      H2833   0.990       .  S
O2811      H2825   0.990       .  S
O2811      H2832   0.990       .  S
O2812      C2816   1.280       .  A
O2813      C2816   1.309       .  A
O2814      H2824   0.991       .  S
O2815      H2828   0.990       .  S
C2816      C3200   1.467       .  S
Zr2839     O2840   2.441       .  S
Zr2839     O2841   2.440       .  S
Zr2839     O2842   2.431       .  S
Zr2839     O2845   2.429       .  S
Zr2839     O2847   2.361       .  S
Zr2839     O2848   2.393       .  S
Zr2839     O2849   2.413       .  S
Zr2839     O2850   2.271       .  S
O2840      H2896   0.991       .  S
O2840      H2904   0.991       .  S
O2841      C2861   1.283       .  A
O2842      C2863   1.281       .  A
O2843     Zr2853   2.534       .  S
O2843      C2862   1.305       .  A
O2844     Zr2852   2.441       .  S
O2844      C2863   1.284       .  A
O2845      C2862   1.282       .  A
O2846     Zr2854   2.398       .  S
O2846      C2861   1.273       .  A
O2847     Zr2852   2.390       .  S
O2847     Zr2854   2.363       .  S
O2848     Zr2853   2.423       .  S
O2848     Zr2854   2.416       .  S
O2848      H2883   0.968       .  S
O2849     Zr2852   2.400       .  S
O2849     Zr2869   2.418   1_455  S
O2849      H2886   0.963       .  S
O2850     Zr2853   2.260       .  S
O2850     Zr2869   2.281   1_455  S
Zr2851     O2876   2.445       .  S
Zr2851     O2870   2.418       .  S
Zr2851     O2878   2.435   1_655  S
Zr2851     O2866   2.407       .  S
Zr2851     O2857   2.363   1_655  S
Zr2851     O2858   2.415   1_655  S
Zr2851     O2859   2.385       .  S
Zr2851     O2860   2.390       .  S
Zr2852     O2871   2.437       .  S
Zr2852     O2864   2.435       .  S
Zr2852     O2865   2.435   1_455  S
Zr2852     O2858   2.409       .  S
Zr2852     O2859   2.397   1_455  S
Zr2853     O2855   2.436   1_455  S
Zr2853     O2877   2.435       .  S
Zr2853     O2879   2.564       .  S
Zr2853     O2857   2.355       .  S
Zr2853     O2860   2.401   1_455  S
Zr2854     O2880   2.435       .  S
Zr2854     O2881   2.437       .  S
Zr2854     O2856   2.434       .  S
Zr2854     O2857   2.359       .  S
Zr2854     O2858   2.412       .  S
O2855      H2892   0.990   1_655  S
O2856      H2887   0.989       .  S
O2856      H2901   0.991       .  S
O2858      H2884   0.969       .  S
O2859     Zr2869   2.364       .  S
O2860     Zr2869   2.410       .  S
O2860      H2885   0.971       .  S
C2861      C3217   1.429       .  S
C2862      C3196   1.471       .  S
C2863      C3236   1.442       .  S
O2864      H2900   0.990       .  S
O2865      C2867   1.283       .  A
O2866      C2867   1.276       .  A
C2867      C3185   1.425       .  S
O2868     Zr2869   2.434       .  S
O2868      H2897   0.989   1_655  S
Zr2869     O2872   2.438       .  S
Zr2869     O2873   2.439       .  S
Zr2869     O2874   2.410       .  S
O2870      C2875   1.277       .  A
O2871      H2888   0.989   1_455  S
O2871      H2903   0.990       .  S
O2872      H2889   0.990       .  S
O2873      H2893   0.992       .  S
O2873      H2902   0.990       .  S
O2874      C2875   1.276       .  A
C2875      C3189   1.420       .  S
O2876      H2895   0.990       .  S
O2876      H2899   0.990       .  S
O2877      H2891   0.991       .  S
O2877      H2898   0.990       .  S
O2878      C2882   1.282       .  A
O2879      C2882   1.310       .  A
O2880      H2890   0.991       .  S
O2881      H2894   0.990       .  S
C2882      C3212   1.476       .  S
Zr2905     O2906   2.434       .  S
Zr2905     O2907   2.437       .  S
Zr2905     O2908   2.432       .  S
Zr2905     O2911   2.445       .  S
Zr2905     O2913   2.397       .  S
Zr2905     O2914   2.373       .  S
Zr2905     O2915   2.404       .  S
Zr2905     O2916   2.412       .  S
O2906      H2962   0.990       .  S
O2906      H2970   0.990       .  S
O2907      C2927   1.283       .  A
O2908      C2929   1.284       .  A
O2909     Zr2919   2.405       .  S
O2909      C2928   1.277       .  A
O2910     Zr2918   2.569       .  S
O2910      C2929   1.313       .  A
O2911      C2928   1.285       .  A
O2912     Zr2920   2.411       .  S
O2912      C2927   1.277       .  A
O2913     Zr2918   2.423       .  S
O2913     Zr2920   2.400       .  S
O2914     Zr2919   2.396       .  S
O2914     Zr2920   2.341       .  S
O2914      H2949   0.962       .  S
O2915     Zr2918   2.409       .  S
O2915     Zr2935   2.346       .  S
O2915      H2952   0.959       .  S
O2916     Zr2919   2.395       .  S
O2916     Zr2935   2.413       .  S
Zr2917     O2942   2.438       .  S
Zr2917     O2936   2.440       .  S
Zr2917     O2944   2.419       .  S
Zr2917     O2932   2.403       .  S
Zr2917     O2923   2.427       .  S
Zr2917     O2924   2.415       .  S
Zr2917     O2925   2.397       .  S
Zr2917     O2926   2.402       .  S
Zr2918     O2937   2.436       .  S
Zr2918     O2930   2.434       .  S
Zr2918     O2931   2.561       .  S
Zr2918     O2924   2.434       .  S
Zr2918     O2925   2.407       .  S
Zr2919     O2921   2.433       .  S
Zr2919     O2943   2.439       .  S
Zr2919     O2945   2.407       .  S
Zr2919     O2923   2.400       .  S
Zr2919     O2926   2.395       .  S
Zr2920     O2946   2.436       .  S
Zr2920     O2947   2.435       .  S
Zr2920     O2922   2.439       .  S
Zr2920     O2923   2.406       .  S
Zr2920     O2924   2.345       .  S
O2921      H2958   0.990       .  S
O2922      H2953   0.990       .  S
O2922      H2967   0.990       .  S
O2924      H2950   0.943       .  S
O2925     Zr2935   2.390       .  S
O2926     Zr2935   2.340       .  S
O2926      H2951   0.965       .  S
C2927      C3201   1.433       .  S
C2928      C3192   1.421       .  S
C2929      C3177   1.484       .  S
O2930      H2966   0.991       .  S
O2931      C2933   1.306       .  A
O2932      C2933   1.269       .  A
C2933      C3181   1.481       .  S
O2934     Zr2935   2.435       .  S
O2934      H2963   0.990       .  S
Zr2935     O2938   2.436       .  S
Zr2935     O2939   2.438       .  S
Zr2935     O2940   2.400       .  S
O2936      C2941   1.284       .  A
O2937      H2954   0.989       .  S
O2937      H2969   0.990       .  S
O2938      H2955   0.990       .  S
O2939      H2959   0.989       .  S
O2939      H2968   0.991       .  S
O2940      C2941   1.276       .  A
C2941      C3701   1.427       .  S
O2942      H2961   0.989       .  S
O2942      H2965   0.990       .  S
O2943      H2957   0.991       .  S
O2943      H2964   0.990       .  S
O2944      C2948   1.268       .  A
O2945      C2948   1.269       .  A
O2946      H2956   0.990       .  S
O2947      H2960   0.990       .  S
C2948      C3676   1.430       .  S
Zr2971     O2972   2.441       .  S
Zr2971     O2973   2.444       .  S
Zr2971     O2974   2.382       .  S
Zr2971     O2977   2.421       .  S
Zr2971     O2979   2.391       .  S
Zr2971     O2980   2.384       .  S
Zr2971     O2981   2.424       .  S
Zr2971     O2982   2.394       .  S
O2972      H3028   0.990       .  S
O2972      H3036   0.990       .  S
O2973      C2993   1.283       .  A
O2974      C2995   1.264       .  A
O2975     Zr2985   2.430       .  S
O2975      C2994   1.282       .  A
O2976     Zr2984   2.587       .  S
O2976      C2995   1.311       .  A
O2977      C2994   1.281       .  A
O2978     Zr2986   2.392       .  S
O2978      C2993   1.277       .  A
O2979     Zr2984   2.378       .  S
O2979     Zr2986   2.352       .  S
O2980     Zr2985   2.379       .  S
O2980     Zr2986   2.383       .  S
O2980      H3015   0.966       .  S
O2981     Zr2984   2.415       .  S
O2981     Zr3001   2.406       .  S
O2981      H3018   0.968       .  S
O2982     Zr2985   2.397       .  S
O2982     Zr3001   2.409       .  S
Zr2983     O3008   2.436       .  S
Zr2983     O3002   2.387       .  S
Zr2983     O3010   2.426       .  S
Zr2983     O2998   2.382       .  S
Zr2983     O2989   2.377       .  S
Zr2983     O2990   2.403       .  S
Zr2983     O2991   2.388       .  S
Zr2983     O2992   2.378       .  S
Zr2984     O3003   2.436       .  S
Zr2984     O2996   2.435       .  S
Zr2984     O2997   2.570       .  S
Zr2984     O2990   2.413       .  S
Zr2984     O2991   2.396       .  S
Zr2985     O2987   2.435       .  S
Zr2985     O3009   2.436       .  S
Zr2985     O3011   2.430       .  S
Zr2985     O2989   2.389       .  S
Zr2985     O2992   2.381       .  S
Zr2986     O3012   2.434       .  S
Zr2986     O3013   2.430       .  S
Zr2986     O2988   2.433       .  S
Zr2986     O2989   2.380       .  S
Zr2986     O2990   2.387       .  S
O2987      H3024   0.990       .  S
O2988      H3019   0.990       .  S
O2988      H3033   0.989       .  S
O2990      H3016   0.974       .  S
O2991     Zr3001   2.364       .  S
O2992     Zr3001   2.371       .  S
O2992      H3017   0.966       .  S
C2993      C3284   1.427       .  S
C2994      C3261   1.430       .  S
C2995      C3173   1.488       .  S
O2996      H3032   0.990       .  S
O2997      C2999   1.313       .  A
O2998      C2999   1.274       .  A
C2999      C3184   1.478       .  S
O3000     Zr3001   2.438       .  S
O3000      H3029   0.990       .  S
Zr3001     O3004   2.437       .  S
Zr3001     O3005   2.436       .  S
Zr3001     O3006   2.456       .  S
O3002      C3007   1.273       .  A
O3003      H3020   0.990       .  S
O3003      H3035   0.991       .  S
O3004      H3021   0.990       .  S
O3005      H3025   0.990       .  S
O3005      H3034   0.990       .  S
O3006      C3007   1.288       .  A
C3007      C3665   1.427       .  S
O3008      H3027   0.989       .  S
O3008      H3031   0.990       .  S
O3009      H3023   0.990       .  S
O3009      H3030   0.990       .  S
O3010      C3014   1.282       .  A
O3011      C3014   1.283       .  A
O3012      H3022   0.991       .  S
O3013      H3026   0.990       .  S
C3014      C3713   1.433       .  S
Zr3037     O3038   2.439       .  S
Zr3037     O3039   2.443       .  S
Zr3037     O3040   2.407       .  S
Zr3037     O3043   2.434       .  S
Zr3037     O3045   2.390       .  S
Zr3037     O3046   2.376       .  S
Zr3037     O3047   2.403       .  S
Zr3037     O3048   2.411       .  S
O3038      H3094   0.990       .  S
O3038      H3102   0.990       .  S
O3039      C3059   1.284       .  A
O3040      C3061   1.278       .  A
O3041     Zr3051   2.414       .  S
O3041      C3060   1.279       .  A
O3042     Zr3050   2.567       .  S
O3042      C3061   1.312       .  A
O3043      C3060   1.283       .  A
O3044     Zr3052   2.396       .  S
O3044      C3059   1.275       .  A
O3045     Zr3050   2.419       .  S
O3045     Zr3052   2.410       .  S
O3046     Zr3051   2.378       .  S
O3046     Zr3052   2.326       .  S
O3046      H3081   0.964       .  S
O3047     Zr3050   2.408       .  S
O3047     Zr3067   2.350       .  S
O3047      H3084   0.969       .  S
O3048     Zr3051   2.384       .  S
O3048     Zr3067   2.411       .  S
Zr3049     O3074   2.436       .  S
Zr3049     O3068   2.434       .  S
Zr3049     O3076   2.448       .  S
Zr3049     O3064   2.464       .  S
Zr3049     O3055   2.414       .  S
Zr3049     O3056   2.401       .  S
Zr3049     O3057   2.388       .  S
Zr3049     O3058   2.382       .  S
Zr3050     O3069   2.435       .  S
Zr3050     O3062   2.434       .  S
Zr3050     O3063   2.565       .  S
Zr3050     O3056   2.413       .  S
Zr3050     O3057   2.412       .  S
Zr3051     O3053   2.435       .  S
Zr3051     O3075   2.437       .  S
Zr3051     O3077   2.383       .  S
Zr3051     O3055   2.404       .  S
Zr3051     O3058   2.381       .  S
Zr3052     O3078   2.438       .  S
Zr3052     O3079   2.438       .  S
Zr3052     O3054   2.437       .  S
Zr3052     O3055   2.400       .  S
Zr3052     O3056   2.332       .  S
O3053      H3090   0.989       .  S
O3054      H3085   0.991       .  S
O3054      H3099   0.990       .  S
O3056      H3082   0.973       .  S
O3057     Zr3067   2.406       .  S
O3058     Zr3067   2.344       .  S
O3058      H3083   0.963       .  S
C3059      C3396   1.428       .  S
C3060      C3428   1.419       .  S
C3061      C3172   1.475       .  S
O3062      H3098   0.991       .  S
O3063      C3065   1.313       .  A
O3064      C3065   1.290       .  A
C3065      C3176   1.489       .  S
O3066     Zr3067   2.439       .  S
O3066      H3095   0.990       .  S
Zr3067     O3070   2.436       .  S
Zr3067     O3071   2.438       .  S
Zr3067     O3072   2.407       .  S
O3068      C3073   1.281       .  A
O3069      H3086   0.989       .  S
O3069      H3101   0.990       .  S
O3070      H3087   0.991       .  S
O3071      H3091   0.991       .  S
O3071      H3100   0.989       .  S
O3072      C3073   1.276       .  A
C3073      C3252   1.425       .  S
O3074      H3093   0.990       .  S
O3074      H3097   0.989       .  S
O3075      H3089   0.990       .  S
O3075      H3096   0.990       .  S
O3076      C3080   1.285       .  A
O3077      C3080   1.274       .  A
O3078      H3088   0.990       .  S
O3079      H3092   0.990       .  S
C3080      C3296   1.416       .  S
Zr3103     O3104   2.437       .  S
Zr3103     O3105   2.412       .  S
Zr3103     O3106   2.387       .  S
Zr3103     O3109   2.408       .  S
Zr3103     O3111   2.390       .  S
Zr3103     O3112   2.382       .  S
Zr3103     O3113   2.414       .  S
Zr3103     O3114   2.384       .  S
O3104      H3160   0.991       .  S
O3104      H3168   0.990       .  S
O3105      C3125   1.277       .  A
O3106      C3127   1.265       .  A
O3107     Zr3117   2.444       .  S
O3107      C3126   1.286       .  A
O3108     Zr3116   2.568       .  S
O3108      C3127   1.307       .  A
O3109      C3126   1.278       .  A
O3110     Zr3118   2.429       .  S
O3110      C3125   1.283       .  A
O3111     Zr3116   2.388       .  S
O3111     Zr3118   2.355       .  S
O3112     Zr3117   2.382       .  S
O3112     Zr3118   2.369       .  S
O3112      H3147   0.966       .  S
O3113     Zr3116   2.420       .  S
O3113     Zr3133   2.397       .  S
O3113      H3150   0.965       .  S
O3114     Zr3117   2.399       .  S
O3114     Zr3133   2.400       .  S
Zr3115     O3140   2.440       .  S
Zr3115     O3134   2.423       .  S
Zr3115     O3142   2.399       .  S
Zr3115     O3130   2.387       .  S
Zr3115     O3121   2.390       .  S
Zr3115     O3122   2.404       .  S
Zr3115     O3123   2.377       .  S
Zr3115     O3124   2.376       .  S
Zr3116     O3135   2.436       .  S
Zr3116     O3128   2.436       .  S
Zr3116     O3129   2.560       .  S
Zr3116     O3122   2.412       .  S
Zr3116     O3123   2.393       .  S
Zr3117     O3119   2.434       .  S
Zr3117     O3141   2.439       .  S
Zr3117     O3143   2.444       .  S
Zr3117     O3121   2.395       .  S
Zr3117     O3124   2.381       .  S
Zr3118     O3144   2.440       .  S
Zr3118     O3145   2.434       .  S
Zr3118     O3120   2.439       .  S
Zr3118     O3121   2.392       .  S
Zr3118     O3122   2.408       .  S
O3119      H3156   0.990       .  S
O3120      H3151   0.990       .  S
O3120      H3165   0.990       .  S
O3122      H3148   0.967       .  S
O3123     Zr3133   2.372       .  S
O3124     Zr3133   2.368       .  S
O3124      H3149   0.966       .  S
C3125      C3188   1.424   1_455  S
C3126      C3213   1.429       .  S
C3127      C3180   1.481       .  S
O3128      H3164   0.990       .  S
O3129      C3131   1.310       .  A
O3130      C3131   1.274       .  A
C3131      C3169   1.476       .  S
O3132     Zr3133   2.435       .  S
O3132      H3161   0.990       .  S
Zr3133     O3136   2.435       .  S
Zr3133     O3137   2.437       .  S
Zr3133     O3138   2.435       .  S
O3134      C3139   1.280       .  A
O3135      H3152   0.991       .  S
O3135      H3167   0.989       .  S
O3136      H3153   0.990       .  S
O3137      H3157   0.990       .  S
O3137      H3166   0.990       .  S
O3138      C3139   1.284       .  A
C3139      C3412   1.433       .  S
O3140      H3159   0.990       .  S
O3140      H3163   0.991       .  S
O3141      H3155   0.991       .  S
O3141      H3162   0.990       .  S
O3142      C3146   1.277       .  A
O3143      C3146   1.286       .  A
O3144      H3154   0.990       .  S
O3145      H3158   0.990       .  S
C3146      C3405   1.425       .  S
C3169      C3170   1.233       .  T
C3170      C3171   1.457       .  S
C3171      C3172   1.233       .  T
C3173      C3174   1.240       .  T
C3174      C3175   1.468       .  S
C3175      C3176   1.240       .  T
C3177      C3178   1.237       .  T
C3178      C3179   1.463       .  S
C3179      C3180   1.237   1_655  T
C3181      C3182   1.236       .  T
C3182      C3183   1.460       .  S
C3183      C3184   1.235       .  T
C3185      C3186   1.199       .  T
C3186      C3187   1.398       .  S
C3187      C3188   1.197       .  T
C3189      C3190   1.196       .  T
C3190      C3191   1.397       .  S
C3191      C3192   1.197       .  T
C3193      C3194   1.229       .  T
C3194      C3195   1.451       .  S
C3195      C3196   1.229       .  T
C3197      C3198   1.228       .  T
C3198      C3199   1.448       .  S
C3199      C3200   1.228       .  T
C3201      C3202   1.205       .  T
C3202      C3203   1.410       .  S
C3203      C3204   1.204       .  T
C3205      C3206   1.230       .  T
C3206      C3207   1.452       .  S
C3207      C3208   1.230       .  T
C3209      C3210   1.232       .  T
C3210      C3211   1.455       .  S
C3211      C3212   1.232       .  T
C3213      C3214   1.202   1_455  T
C3214      C3215   1.407       .  S
C3215      C3216   1.202       .  T
C3217      C3218   1.202       .  T
C3218      C3219   1.404       .  S
C3219      C3220   1.200       .  T
C3221      C3222   1.205       .  T
C3222      C3223   1.410       .  S
C3223      C3224   1.204       .  T
C3225      C3226   1.187       .  T
C3226      C3227   1.381       .  S
C3227      C3228   1.187       .  T
C3229      C3230   1.237       .  T
C3230      C3231   1.463       .  S
C3231      C3232   1.237       .  T
C3233      C3234   1.209       .  T
C3234      C3235   1.418       .  S
C3235      C3236   1.210       .  T
C3237      C3238   1.231       .  T
C3238      C3239   1.453       .  S
C3239      C3240   1.230       .  T
C3241      C3242   1.241       .  T
C3242      C3243   1.470       .  S
C3243      C3244   1.241       .  T
C3245      C3246   1.239       .  T
C3246      C3247   1.466       .  S
C3247      C3248   1.239       .  T
C3249      C3250   1.200       .  T
C3250      C3251   1.403       .  S
C3251      C3252   1.200       .  T
C3253      C3254   1.199       .  T
C3254      C3255   1.399       .  S
C3255      C3256   1.196       .  T
C3257      C3258   1.195       .  T
C3258      C3259   1.394       .  S
C3259      C3260   1.195       .  T
C3261      C3262   1.203       .  T
C3262      C3263   1.407       .  S
C3263      C3264   1.203       .  T
C3265      C3266   1.209       .  T
C3266      C3267   1.417       .  S
C3267      C3268   1.208       .  T
C3269      C3270   1.226       .  T
C3270      C3271   1.445       .  S
C3271      C3272   1.226       .  T
C3273      C3274   1.201       .  T
C3274      C3275   1.402       .  S
C3275      C3276   1.198       .  T
C3277      C3278   1.222       .  T
C3278      C3279   1.439       .  S
C3279      C3280   1.222       .  T
C3281      C3282   1.204       .  T
C3282      C3283   1.406       .  S
C3283      C3284   1.201       .  T
C3285      C3286   1.224       .  T
C3286      C3287   1.441       .  S
C3287      C3288   1.223       .  T
C3289      C3290   1.229       .  T
C3290      C3291   1.449       .  S
C3291      C3292   1.229       .  T
C3293      C3294   1.193       .  T
C3294      C3295   1.392       .  S
C3295      C3296   1.195       .  T
C3297      C3298   1.197       .  T
C3298      C3299   1.399       .  S
C3299      C3300   1.198       .  T
C3301      C3302   1.207       .  T
C3302      C3303   1.415       .  S
C3303      C3304   1.208       .  T
C3305      C3306   1.229       .  T
C3306      C3307   1.450       .  S
C3307      C3308   1.229       .  T
C3309      C3310   1.233       .  T
C3310      C3311   1.457       .  S
C3311      C3312   1.233       .  T
C3313      C3314   1.198       .  T
C3314      C3315   1.397       .  S
C3315      C3316   1.196       .  T
C3317      C3318   1.233       .  T
C3318      C3319   1.456       .  S
C3319      C3320   1.233       .  T
C3321      C3322   1.231       .  T
C3322      C3323   1.453       .  S
C3323      C3324   1.231       .  T
C3325      C3326   1.207       .  T
C3326      C3327   1.414       .  S
C3327      C3328   1.207       .  T
C3329      C3330   1.205       .  T
C3330      C3331   1.411       .  S
C3331      C3332   1.205       .  T
C3333      C3334   1.208       .  T
C3334      C3335   1.416       .  S
C3335      C3336   1.209       .  T
C3337      C3338   1.207       .  T
C3338      C3339   1.414       .  S
C3339      C3340   1.206       .  T
C3341      C3342   1.238       .  T
C3342      C3343   1.465       .  S
C3343      C3344   1.238       .  T
C3345      C3346   1.199       .  T
C3346      C3347   1.403       .  S
C3347      C3348   1.202       .  T
C3349      C3350   1.239       .  T
C3350      C3351   1.466       .  S
C3351      C3352   1.239       .  T
C3353      C3354   1.245       .  T
C3354      C3355   1.475       .  S
C3355      C3356   1.245       .  T
C3357      C3358   1.233       .  T
C3358      C3359   1.458       .  S
C3359      C3360   1.234       .  T
C3361      C3362   1.203       .  T
C3362      C3363   1.410       .  S
C3363      C3364   1.205       .  T
C3365      C3366   1.201       .  T
C3366      C3367   1.402       .  S
C3367      C3368   1.198       .  T
C3369      C3370   1.200       .  T
C3370      C3371   1.404   1_455  S
C3371      C3372   1.200       .  T
C3373      C3374   1.231       .  T
C3374      C3375   1.454       .  S
C3375      C3376   1.231       .  T
C3377      C3378   1.205       .  T
C3378      C3379   1.411       .  S
C3379      C3380   1.205       .  T
C3381      C3382   1.240       .  T
C3382      C3383   1.467       .  S
C3383      C3384   1.239       .  T
C3385      C3386   1.237       .  T
C3386      C3387   1.462   1_455  S
C3387      C3388   1.236       .  T
C3389      C3390   1.233       .  T
C3390      C3391   1.457       .  S
C3391      C3392   1.233       .  T
C3393      C3394   1.202       .  T
C3394      C3395   1.407       .  S
C3395      C3396   1.202       .  T
C3397      C3398   1.206       .  T
C3398      C3399   1.413       .  S
C3399      C3400   1.205       .  T
C3401      C3402   1.195       .  T
C3402      C3403   1.394       .  S
C3403      C3404   1.194       .  T
C3405      C3406   1.201       .  T
C3406      C3407   1.405       .  S
C3407      C3408   1.201       .  T
C3409      C3410   1.203       .  T
C3410      C3411   1.409       .  S
C3411      C3412   1.204       .  T
C3413      C3414   1.203       .  T
C3414      C3415   1.408       .  S
C3415      C3416   1.203       .  T
C3417      C3418   1.224       .  T
C3418      C3419   1.442       .  S
C3419      C3420   1.224       .  T
C3421      C3422   1.201       .  T
C3422      C3423   1.402       .  S
C3423      C3424   1.197       .  T
C3425      C3426   1.202       .  T
C3426      C3427   1.405       .  S
C3427      C3428   1.200       .  T
C3429      C3430   1.204       .  T
C3430      C3431   1.409       .  S
C3431      C3432   1.203       .  T
C3433      C3434   1.226       .  T
C3434      C3435   1.444       .  S
C3435      C3436   1.225       .  T
C3437      C3438   1.196       .  T
C3438      C3439   1.397       .  S
C3439      C3440   1.197       .  T
C3441      C3442   1.205       .  T
C3442      C3443   1.412       .  S
C3443      C3444   1.206       .  T
C3445      C3446   1.229       .  T
C3446      C3447   1.450   1_545  S
C3447      C3448   1.229       .  T
C3449      C3450   1.229       .  T
C3450      C3451   1.451       .  S
C3451      C3452   1.229       .  T
C3453      C3454   1.199       .  T
C3454      C3455   1.401       .  S
C3455      C3456   1.198       .  T
C3457      C3458   1.199       .  T
C3458      C3459   1.400       .  S
C3459      C3460   1.198       .  T
C3461      C3462   1.193       .  T
C3462      C3463   1.394       .  S
C3463      C3464   1.196       .  T
C3465      C3466   1.197       .  T
C3466      C3467   1.399       .  S
C3467      C3468   1.197       .  T
C3469      C3470   1.207       .  T
C3470      C3471   1.413       .  S
C3471      C3472   1.206       .  T
C3473      C3474   1.197       .  T
C3474      C3475   1.397       .  S
C3475      C3476   1.197       .  T
C3477      C3478   1.202       .  T
C3478      C3479   1.407       .  S
C3479      C3480   1.203       .  T
C3481      C3482   1.228       .  T
C3482      C3483   1.450   1_554  S
C3483      C3484   1.229       .  T
C3485      C3486   1.203       .  T
C3486      C3487   1.407       .  S
C3487      C3488   1.203       .  T
C3489      C3490   1.198       .  T
C3490      C3491   1.398   1_556  S
C3491      C3492   1.199       .  T
C3493      C3494   1.203       .  T
C3494      C3495   1.408       .  S
C3495      C3496   1.203       .  T
C3497      C3498   1.240       .  T
C3498      C3499   1.467       .  S
C3499      C3500   1.239       .  T
C3501      C3502   1.203       .  T
C3502      C3503   1.409       .  S
C3503      C3504   1.204       .  T
C3505      C3506   1.199       .  T
C3506      C3507   1.400       .  S
C3507      C3508   1.199       .  T
C3509      C3510   1.231       .  T
C3510      C3511   1.453   1_655  S
C3511      C3512   1.231       .  T
C3513      C3514   1.245       .  T
C3514      C3515   1.475       .  S
C3515      C3516   1.245       .  T
C3517      C3518   1.200       .  T
C3518      C3519   1.403       .  S
C3519      C3520   1.202   1_455  T
C3521      C3522   1.196       .  T
C3522      C3523   1.397       .  S
C3523      C3524   1.197       .  T
C3525      C3526   1.203       .  T
C3526      C3527   1.410       .  S
C3527      C3528   1.205       .  T
C3529      C3530   1.200       .  T
C3530      C3531   1.401       .  S
C3531      C3532   1.197       .  T
C3533      C3534   1.205       .  T
C3534      C3535   1.411       .  S
C3535      C3536   1.205       .  T
C3537      C3538   1.199       .  T
C3538      C3539   1.400       .  S
C3539      C3540   1.197       .  T
C3541      C3542   1.232       .  T
C3542      C3543   1.455       .  S
C3543      C3544   1.232       .  T
C3545      C3546   1.204       .  T
C3546      C3547   1.408   1_545  S
C3547      C3548   1.203       .  T
C3549      C3550   1.195       .  T
C3550      C3551   1.396       .  S
C3551      C3552   1.196       .  T
C3553      C3554   1.235       .  T
C3554      C3555   1.459       .  S
C3555      C3556   1.235       .  T
C3557      C3558   1.202       .  T
C3558      C3559   1.407       .  S
C3559      C3560   1.203       .  T
C3561      C3562   1.200       .  T
C3562      C3563   1.403       .  S
C3563      C3564   1.199       .  T
C3565      C3566   1.210       .  T
C3566      C3567   1.419       .  S
C3567      C3568   1.210       .  T
C3569      C3570   1.238       .  T
C3570      C3571   1.465       .  S
C3571      C3572   1.238       .  T
C3573      C3574   1.246       .  T
C3574      C3575   1.478       .  S
C3575      C3576   1.246   1_565  T
C3577      C3578   1.205       .  T
C3578      C3579   1.411       .  S
C3579      C3580   1.206       .  T
C3581      C3582   1.201       .  T
C3582      C3583   1.406   1_545  S
C3583      C3584   1.201       .  T
C3585      C3586   1.197       .  T
C3586      C3587   1.397       .  S
C3587      C3588   1.198       .  T
C3589      C3590   1.204       .  T
C3590      C3591   1.410       .  S
C3591      C3592   1.204       .  T
C3593      C3594   1.205       .  T
C3594      C3595   1.411       .  S
C3595      C3596   1.205       .  T
C3597      C3598   1.199       .  T
C3598      C3599   1.401       .  S
C3599      C3600   1.199       .  T
C3601      C3602   1.200       .  T
C3602      C3603   1.403       .  S
C3603      C3604   1.200       .  T
C3605      C3606   1.203       .  T
C3606      C3607   1.408       .  S
C3607      C3608   1.203       .  T
C3609      C3610   1.236       .  T
C3610      C3611   1.462       .  S
C3611      C3612   1.237       .  T
C3613      C3614   1.195       .  T
C3614      C3615   1.395       .  S
C3615      C3616   1.196       .  T
C3617      C3618   1.206       .  T
C3618      C3619   1.411       .  S
C3619      C3620   1.204       .  T
C3621      C3622   1.205       .  T
C3622      C3623   1.412       .  S
C3623      C3624   1.205       .  T
C3625      C3626   1.199       .  T
C3626      C3627   1.399       .  S
C3627      C3628   1.198       .  T
C3629      C3630   1.224       .  T
C3630      C3631   1.441       .  S
C3631      C3632   1.223       .  T
C3633      C3634   1.203       .  T
C3634      C3635   1.409       .  S
C3635      C3636   1.204       .  T
C3637      C3638   1.203       .  T
C3638      C3639   1.409       .  S
C3639      C3640   1.204       .  T
C3641      C3642   1.204       .  T
C3642      C3643   1.410       .  S
C3643      C3644   1.204       .  T
C3645      C3646   1.198       .  T
C3646      C3647   1.398   1_455  S
C3647      C3648   1.197       .  T
C3649      C3650   1.224       .  T
C3650      C3651   1.443       .  S
C3651      C3652   1.224       .  T
C3653      C3654   1.231       .  T
C3654      C3655   1.453       .  S
C3655      C3656   1.231       .  T
C3657      C3658   1.203       .  T
C3658      C3659   1.410       .  S
C3659      C3660   1.205       .  T
C3661      C3662   1.203       .  T
C3662      C3663   1.408       .  S
C3663      C3664   1.203       .  T
C3665      C3666   1.200       .  T
C3666      C3667   1.399       .  S
C3667      C3668   1.196       .  T
C3669      C3670   1.208       .  T
C3670      C3671   1.416       .  S
C3671      C3672   1.208       .  T
C3673      C3674   1.204       .  T
C3674      C3675   1.408       .  S
C3675      C3676   1.204       .  T
C3677      C3678   1.197       .  T
C3678      C3679   1.400       .  S
C3679      C3680   1.199       .  T
C3681      C3682   1.205       .  T
C3682      C3683   1.411       .  S
C3683      C3684   1.204       .  T
C3685      C3686   1.205       .  T
C3686      C3687   1.411       .  S
C3687      C3688   1.205       .  T
C3689      C3690   1.225       .  T
C3690      C3691   1.443       .  S
C3691      C3692   1.224       .  T
C3693      C3694   1.204       .  T
C3694      C3695   1.409       .  S
C3695      C3696   1.204       .  T
C3697      C3698   1.198       .  T
C3698      C3699   1.400       .  S
C3699      C3700   1.198       .  T
C3701      C3702   1.202       .  T
C3702      C3703   1.406       .  S
C3703      C3704   1.202       .  T
C3705      C3706   1.204       .  T
C3706      C3707   1.408       .  S
C3707      C3708   1.202       .  T
C3709      C3710   1.222       .  T
C3710      C3711   1.439       .  S
C3711      C3712   1.222       .  T
C3713      C3714   1.205       .  T
C3714      C3715   1.411       .  S
C3715      C3716   1.205       .  T
C3717      C3718   1.197       .  T
C3718      C3719   1.399       .  S
C3719      C3720   1.197       .  T
C3721      C3722   1.204       .  T
C3722      C3723   1.408       .  S
C3723      C3724   1.203       .  T
C3725      C3726   1.201   1_556  T
C3726      C3727   1.402       .  S
C3727      C3728   1.198       .  T
C3729      C3730   1.226       .  T
C3730      C3731   1.444       .  S
C3731      C3732   1.225       .  T
C3733      C3734   1.227       .  T
C3734      C3735   1.446       .  S
C3735      C3736   1.226       .  T
C3737      C3738   1.195       .  T
C3738      C3739   1.392       .  S
C3739      C3740   1.192       .  T
C3741      C3742   1.202       .  T
C3742      C3743   1.405       .  S
C3743      C3744   1.201       .  T
