geometry optimzed in LAMMPS
_audit_creation_date              2020-11-30 
_audit_creation_method            'lammps2cif' 
_symmetry_space_group_name_H-M    'P1' 
_symmetry_Int_Tables_number       1 
_symmetry_cell_setting            triclinic 
loop_ 
_symmetry_equiv_pos_as_xyz 
  x,y,z 
_cell_length_a                    37.49780873 
_cell_length_b                    37.48315761086333 
_cell_length_c                    28.193862196236402 
_cell_angle_alpha                 90.19628191758065 
_cell_angle_beta                  90.07206622397327 
_cell_angle_gamma                 119.98830444862752 
loop_ 
_atom_site_label 
_atom_site_type_symbol 
_atom_site_fract_x 
_atom_site_fract_y 
_atom_site_fract_z 
_atom_site_charge 
N1          N  0.34462938  0.09438482  0.45377979    -0.26900
N2          N  0.30977280  0.09444461  0.46064300    -0.34700
C3          C  0.28034437  0.05657782  0.47349006     0.01500
C4          C  0.29733446  0.03131532  0.47521345     0.07500
C5          C  0.33821797  0.05624510  0.46253347    -0.05600
H6          H  0.24901874  0.04832579  0.48194954     0.08200
H7          H  0.36148854  0.04733903  0.45972072     0.09400
Cu8        Cu  0.30355966  0.14623272  0.45671869     0.44200
Cu9        Cu  0.39867303  0.14677504  0.43252797     0.42000
Cu10       Cu  0.39518393  0.24269366  0.43921916     0.43900
N11         N  0.30581763  0.20229205  0.46423730    -0.34300
N12         N  0.34020164  0.23805316  0.46031967    -0.28500
C13         C  0.33243095  0.26856424  0.47078030    -0.04600
C14         C  0.29103362  0.25101952  0.48134855     0.07600
C15         C  0.27506434  0.20900253  0.47668258     0.01400
H16         H  0.35511285  0.30103678  0.47019928     0.09000
H17         H  0.24364570  0.18501199  0.48296107     0.08100
N18         N  0.44364845  0.23816312  0.41083453    -0.35700
N19         N  0.44530354  0.20375876  0.40852236    -0.27900
C20         C  0.48017437  0.21168827  0.38611550    -0.03100
C21         C  0.50115110  0.25285582  0.37324434     0.05500
C22         C  0.47712059  0.26865609  0.38977684     0.03600
H23         H  0.48895221  0.18883978  0.37833498     0.08700
H24         H  0.48326063  0.29996745  0.38670279     0.07500
N25         N  0.25318021  0.31931854  0.51838751    -0.26900
N26         N  0.21833795  0.28589956  0.50663754    -0.34700
C27         C  0.22644586  0.25643908  0.49241766     0.01500
C28         C  0.26850265  0.27223582  0.49478323     0.07500
C29         C  0.28459791  0.31220386  0.51131256    -0.05600
H30         H  0.20351641  0.22622080  0.47985807     0.08200
H31         H  0.31667596  0.33442663  0.51774776     0.09400
Cu32       Cu  0.16208891  0.28351651  0.50551472     0.44200
Cu33       Cu  0.25522974  0.37255523  0.54315802     0.42000
Cu34       Cu  0.16177179  0.37877778  0.52642666     0.43900
N35         N  0.11125607  0.29032906  0.49495837    -0.34300
N36         N  0.11124124  0.32538272  0.50034955    -0.28500
C37         C  0.07373654  0.31927637  0.48857644    -0.04600
C38         C  0.04912020  0.27836516  0.47560641     0.07600
C39         C  0.07388955  0.26100348  0.48013665     0.01400
H40         H  0.06481937  0.34259539  0.49041707     0.09000
H41         H  0.06550954  0.22938593  0.47292929     0.08100
N42         N  0.21459190  0.42381562  0.56044836    -0.35700
N43         N  0.24790434  0.42091627  0.56737397    -0.27900
C44         C  0.27529373  0.45367159  0.59271409    -0.03100
C45         C  0.25877631  0.47884305  0.60241599     0.05500
C46         C  0.22015498  0.45874761  0.58091847     0.03600
H47         H  0.30490870  0.45828965  0.60388962     0.08700
H48         H  0.19754222  0.46849641  0.57958393     0.07500
N49         N  0.79681728  0.09638282  0.44061293    -0.26900
N50         N  0.83201457  0.09724517  0.44825701    -0.34700
C51         C  0.82420289  0.05958426  0.46129819     0.01500
C52         C  0.78202190  0.03381485  0.46223346     0.07500
C53         C  0.76552283  0.05809981  0.44900296    -0.05600
H54         H  0.84754186  0.05184040  0.47043748     0.08200
H55         H  0.73325595  0.04868311  0.44557908     0.09400
Cu56       Cu  0.88889090  0.15011548  0.44393380     0.44200
Cu57       Cu  0.79395148  0.14754926  0.41831559     0.42000
Cu58       Cu  0.89174622  0.24531837  0.41649249     0.43900
N59         N  0.94180169  0.20708150  0.44737719    -0.34300
N60         N  0.94300021  0.24238155  0.43928044    -0.28500
C61         C  0.98146896  0.27354749  0.44790631    -0.04600
C62         C  0.00543797  0.25678856  0.46168875     0.07600
C63         C  0.97931827  0.21466417  0.46080890     0.01400
H64         H  0.99122335  0.30587706  0.44431348     0.09000
H65         H  0.98670305  0.19117531  0.47042187     0.08100
N66         N  0.83620357  0.23745992  0.39079201    -0.35700
N67         N  0.80098767  0.20213597  0.39141780    -0.27900
C68         C  0.77166301  0.20731637  0.37046991    -0.03100
C69         C  0.78918369  0.24781789  0.35563020     0.05500
C70         C  0.83008892  0.26602457  0.36949262     0.03600
H71         H  0.73989825  0.18326390  0.36673647     0.08700
H72         H  0.85395793  0.29756253  0.36357089     0.07500
N73         N  0.79519518  0.69552503  0.47112953    -0.26900
N74         N  0.83041872  0.72982933  0.47917965    -0.34700
C75         C  0.82270489  0.75997854  0.49134202     0.01500
C76         C  0.78059711  0.74395240  0.49142644     0.07500
C77         C  0.76396694  0.70293782  0.47861141    -0.05600
H78         H  0.84613143  0.79128538  0.49963577     0.08200
H79         H  0.73171703  0.68051121  0.47374988     0.09400
Cu80       Cu  0.88770508  0.73461667  0.47501799     0.44200
Cu81       Cu  0.79240961  0.64157008  0.44693389     0.42000
Cu82       Cu  0.89026601  0.64246180  0.44712446     0.43900
N83         N  0.94091624  0.73098059  0.47738010    -0.34300
N84         N  0.94160975  0.69659584  0.46921502    -0.28500
C85         C  0.98025582  0.70384872  0.47538789    -0.04600
C86         C  0.00501770  0.74486258  0.48763767     0.07600
C87         C  0.97912205  0.76116818  0.48850026     0.01400
H88         H  0.98970866  0.68114099  0.47044726     0.09000
H89         H  0.98729063  0.79251792  0.49702248     0.08100
N90         N  0.83648262  0.59595913  0.41700423    -0.35700
N91         N  0.80101048  0.59553486  0.41682039    -0.27900
C92         C  0.77333454  0.56251079  0.39192437    -0.03100
C93         C  0.79228048  0.54123821  0.37521259     0.05500
C94         C  0.83230035  0.56333504  0.39223291     0.03600
H95         H  0.74197517  0.55521263  0.38526343     0.08700
H96         H  0.85679325  0.55645577  0.38720532     0.07500
N97         N  0.71103539  0.78318973  0.51661752    -0.26900
N98         N  0.74584537  0.81787927  0.50897341    -0.34700
C99         C  0.77576396  0.80911347  0.49965908     0.01500
C100        C  0.75892444  0.76684141  0.50096562     0.07500
C101        C  0.71778390  0.75127393  0.51177405    -0.05600
H102        H  0.80719565  0.83182210  0.49114693     0.08200
H103        H  0.69454489  0.71923864  0.51596573     0.09400
Cu104      Cu  0.75038275  0.87525000  0.50682916     0.44200
Cu105      Cu  0.65674755  0.78201360  0.53413572     0.42000
Cu106      Cu  0.65700693  0.87920899  0.52341715     0.43900
N107        N  0.74599815  0.92746112  0.49510067    -0.34300
N108        N  0.71137898  0.92847794  0.49889451    -0.28500
C109        C  0.71858460  0.96625721  0.48702959    -0.04600
C110        C  0.75980605  0.99015204  0.47570759     0.07600
C111        C  0.77625101  0.96462851  0.48123522     0.01400
H112        H  0.69574457  0.97583982  0.48773349     0.09000
H113        H  0.80782708  0.97237243  0.47540931     0.08100
N114        N  0.61027500  0.82695643  0.55529144    -0.35700
N115        N  0.60981374  0.79148776  0.55802648    -0.27900
C116        C  0.57588803  0.76424834  0.58147125    -0.03100
C117        C  0.55441295  0.78366786  0.59476155     0.05500
C118        C  0.57690095  0.82334419  0.57755723     0.03600
H119        H  0.56797443  0.73290675  0.58931770     0.08700
H120        H  0.56955778  0.84772067  0.58085641     0.07500
N121        N  0.11306268  0.78036284  0.51169322    -0.26900
N122        N  0.11406356  0.81597628  0.50777645    -0.34700
C123        C  0.07577168  0.80884885  0.49911232     0.01500
C124        C  0.04953098  0.76670877  0.49712257     0.07500
C125        C  0.07416095  0.74955940  0.50518287    -0.05600
H126        H  0.06783987  0.83260210  0.49364857     0.08200
H127        H  0.06454770  0.71714076  0.50652005     0.09400
Cu128      Cu  0.16797855  0.87236714  0.51079139     0.44200
Cu129      Cu  0.16464624  0.77579679  0.52701565     0.42000
Cu130      Cu  0.26340222  0.87177579  0.52659246     0.43900
N131        N  0.22562661  0.92422059  0.50403916    -0.34300
N132        N  0.26076984  0.92420946  0.50795639    -0.28500
C133        C  0.29206964  0.96233654  0.49830563    -0.04600
C134        C  0.27562911  0.98735870  0.48811644     0.07600
C135        C  0.23351565  0.96215567  0.49224378     0.01400
H136        H  0.32429706  0.97116004  0.49879786     0.09000
H137        H  0.21013376  0.97049821  0.48612311     0.08100
N138        N  0.25534512  0.81530525  0.54928677    -0.35700
N139        N  0.21956770  0.78058568  0.54914113    -0.27900
C140        C  0.22416627  0.75088000  0.56992441    -0.03100
C141        C  0.26486062  0.76749545  0.58393484     0.05500
C142        C  0.28362545  0.80847278  0.57020633     0.03600
H143        H  0.19897401  0.72031113  0.57718119     0.08700
H144        H  0.31521565  0.83210032  0.57664776     0.07500
C145        C  0.36129088  0.67871818  0.77717267     0.45900
H146        H  0.36394738  0.68111594  0.81630308    -0.03200
C147        C  0.35766866  0.67368937  0.68550703     0.45900
H148        H  0.35268364  0.66939547  0.64726920    -0.03200
C149        C  0.40369637  0.70208912  0.75261257    -0.16900
C150        C  0.34156313  0.63423508  0.75906023    -0.16600
C151        C  0.33514579  0.69579070  0.75537499    -0.17000
C152        C  0.40232411  0.70105658  0.70323479    -0.17000
C153        C  0.34098949  0.63185763  0.71031696    -0.16500
C154        C  0.33415015  0.69373871  0.70664438    -0.16800
N155        N  0.94266844  0.25026622  0.00614867    -0.26900
N156        N  0.94085601  0.21468376  0.99783891    -0.34700
C157        C  0.97853367  0.22164039  0.98636685     0.01500
C158        C  0.00529852  0.26365711  0.98718034     0.07500
C159        C  0.98159697  0.28098782  0.99970835    -0.05600
H160        H  0.98579159  0.19782023  0.97785481     0.08200
H161        H  0.99198408  0.31334685  0.00487211     0.09400
Cu162      Cu  0.88717616  0.15838598  0.00102887     0.44200
Cu163      Cu  0.89229997  0.25417277  0.02892998     0.42000
Cu164      Cu  0.79338228  0.15685284  0.03107914     0.43900
N165        N  0.82991138  0.10584139  0.99775519    -0.34300
N166        N  0.79493312  0.10503965  0.00676612    -0.28500
C167        C  0.76344047  0.06654622  0.99880720    -0.04600
C168        C  0.77969246  0.04215412  0.98459157     0.07600
C169        C  0.82183537  0.06809037  0.98447050     0.01400
H170        H  0.73126813  0.05692723  0.00370368     0.09000
H171        H  0.84502237  0.06029470  0.97474717     0.08100
N172        N  0.80306586  0.21269757  0.05879708    -0.35700
N173        N  0.83871263  0.24759608  0.05808246    -0.27900
C174        C  0.83466465  0.27701671  0.08071470    -0.03100
C175        C  0.79454929  0.25992560  0.09665760     0.05500
C176        C  0.77540158  0.21917656  0.08179353     0.03600
H177        H  0.85918660  0.30855271  0.08476289     0.08700
H178        H  0.74380218  0.19565071  0.08812181     0.07500
N179        N  0.71004414  0.93463541  0.95218575    -0.26900
N180        N  0.74483386  0.93442908  0.95893104    -0.34700
C181        C  0.77461155  0.97251521  0.97107876     0.01500
C182        C  0.75776568  0.99794172  0.97261053     0.07500
C183        C  0.71670538  0.97294757  0.96052301    -0.05600
H184        H  0.80604146  0.98083714  0.97923589     0.08200
H185        H  0.69353580  0.98197704  0.95754130     0.09400
Cu186      Cu  0.74974821  0.88182202  0.95546788     0.44200
Cu187      Cu  0.65595668  0.88232504  0.93092420     0.42000
Cu188      Cu  0.65584061  0.78486267  0.93666058     0.43900
N189        N  0.74596605  0.82497958  0.96200282    -0.34300
N190        N  0.71132789  0.78940202  0.95739652    -0.28500
C191        C  0.71891715  0.75863696  0.96705822    -0.04600
C192        C  0.76035275  0.77577640  0.97781998     0.07600
C193        C  0.77653326  0.81784514  0.97414168     0.01400
H194        H  0.69604815  0.72622781  0.96593510     0.09000
H195        H  0.80802383  0.84162099  0.98083395     0.08100
N196        N  0.60740529  0.79078407  0.90928855    -0.35700
N197        N  0.60787599  0.82622453  0.90671502    -0.27900
C198        C  0.57386795  0.82023807  0.88372822    -0.03100
C199        C  0.55030099  0.77888634  0.87141713     0.05500
C200        C  0.57286474  0.76131309  0.88820480     0.03600
H201        H  0.56810283  0.84488311  0.87468771     0.08700
H202        H  0.56531306  0.72957292  0.88439031     0.07500
N203        N  0.79719604  0.70658540  0.01447293    -0.26900
N204        N  0.83251592  0.74033597  0.00540688    -0.34700
C205        C  0.82483485  0.77010328  0.99128647     0.01500
C206        C  0.78264295  0.75417391  0.99099474     0.07500
C207        C  0.76605351  0.71381109  0.00579715    -0.05600
H208        H  0.84822551  0.80082909  0.98115106     0.08200
H209        H  0.73379226  0.69147805  0.01047613     0.09400
Cu210      Cu  0.88927297  0.74328213  0.00940055     0.44200
Cu211      Cu  0.79354247  0.65292427  0.03977244     0.42000
Cu212      Cu  0.88886900  0.64913548  0.03922187     0.43900
N213        N  0.94095306  0.73657750  0.00523825    -0.34300
N214        N  0.94066065  0.70175584  0.01382877    -0.28500
C215        C  0.97838863  0.70724225  0.00470417    -0.04600
C216        C  0.00359517  0.74754499  0.99018924     0.07600
C217        C  0.97884391  0.76518833  0.99113005     0.01400
H218        H  0.98696250  0.68383279  0.00897021     0.09000
H219        H  0.98750942  0.79638279  0.98140865     0.08100
N220        N  0.83365988  0.60354552  0.06841074    -0.35700
N221        N  0.79925516  0.60521643  0.06888986    -0.27900
C222        C  0.76991366  0.57203379  0.09172766    -0.03100
C223        C  0.78651080  0.54817351  0.10655811     0.05500
C224        C  0.82694158  0.56906707  0.09079005     0.03600
H225        H  0.73865060  0.56560926  0.09644056     0.08700
H226        H  0.85003767  0.56017164  0.09587735     0.07500
N227        N  0.25844749  0.92499399  0.95660443    -0.26900
N228        N  0.22348245  0.92492656  0.96287419    -0.34700
C229        C  0.23182097  0.96311285  0.97453862     0.01500
C230        C  0.27407925  0.98852197  0.97611918     0.07500
C231        C  0.29011140  0.96336613  0.96464133    -0.05600
H232        H  0.20871817  0.97157561  0.98203080     0.08200
H233        H  0.32229036  0.97234861  0.96173214     0.09400
Cu234      Cu  0.16580351  0.87264467  0.95830030     0.44200
Cu235      Cu  0.26008594  0.87249418  0.93582956     0.42000
Cu236      Cu  0.16022196  0.77600704  0.93278667     0.43900
N237        N  0.11169250  0.81646524  0.96233296    -0.34300
N238        N  0.10953120  0.78056589  0.95508636    -0.28500
C239        C  0.07074526  0.75021066  0.96397781    -0.04600
C240        C  0.04750015  0.76806917  0.97695312     0.07600
C241        C  0.07447113  0.81005136  0.97533781     0.01400
H242        H  0.06020969  0.71764891  0.96091509     0.09000
H243        H  0.06781557  0.83424259  0.98411074     0.08100
N244        N  0.21553525  0.78202082  0.90825061    -0.35700
N245        N  0.25147714  0.81660480  0.91000399    -0.27900
C246        C  0.28017109  0.81031793  0.88918024    -0.03100
C247        C  0.26160373  0.76987592  0.87338735     0.05500
C248        C  0.22055150  0.75298756  0.88599548     0.03600
H249        H  0.31175289  0.83418478  0.88372027     0.08700
H250        H  0.19587536  0.72204720  0.87856943     0.07500
N251        N  0.34037328  0.24037787  0.00855992    -0.26900
N252        N  0.30610742  0.20493921  0.00154853    -0.34700
C253        C  0.27547797  0.21236496  0.99077497     0.01500
C254        C  0.29145420  0.25453834  0.99060577     0.07500
C255        C  0.33265078  0.27138048  0.00195802    -0.05600
H256        H  0.24418224  0.18884188  0.98266164     0.08200
H257        H  0.35529611  0.30372013  0.00550918     0.09400
Cu258      Cu  0.30364532  0.14858242  0.00394660     0.44200
Cu259      Cu  0.39548777  0.24452159  0.02811303     0.42000
Cu260      Cu  0.39829098  0.14856987  0.02982870     0.43900
N261        N  0.30949649  0.09659744  0.00004071    -0.34300
N262        N  0.34415404  0.09630028  0.00770482    -0.28500
C263        C  0.33731474  0.05782129  0.99998399    -0.04600
C264        C  0.29633834  0.03291510  0.98729755     0.07600
C265        C  0.27975438  0.05854731  0.98780480     0.01400
H266        H  0.36025075  0.04857615  0.00397151     0.09000
H267        H  0.24840599  0.05031435  0.97931684     0.08100
N268        N  0.44561981  0.20500355  0.05504459    -0.35700
N269        N  0.44458756  0.23974073  0.05387353    -0.27900
C270        C  0.47818520  0.26960242  0.07589196    -0.03100
C271        C  0.50172938  0.25305167  0.09186822     0.05500
C272        C  0.47999672  0.21197079  0.07802062     0.03600
H273        H  0.48352062  0.30033222  0.08231249     0.08700
H274        H  0.48792371  0.18847924  0.08545819     0.07500
N275        N  0.25588865  0.32583813  0.96046144    -0.26900
N276        N  0.22032923  0.29181569  0.96749343    -0.34700
C277        C  0.22742786  0.26114356  0.97908209     0.01500
C278        C  0.26952288  0.27681675  0.97976405     0.07500
C279        C  0.28666473  0.31790349  0.96790852    -0.05600
H280        H  0.20372360  0.22998033  0.98713673     0.08200
H281        H  0.31904360  0.34025557  0.96429759     0.09400
Cu282      Cu  0.16423484  0.28967158  0.96372425     0.44200
Cu283      Cu  0.26040212  0.38076632  0.93920963     0.42000
Cu284      Cu  0.16649362  0.38634217  0.94295785     0.43900
N285        N  0.11303195  0.29672413  0.96720923    -0.34300
N286        N  0.11390747  0.33219727  0.96191803    -0.28500
C287        C  0.07572370  0.32614271  0.96852455    -0.04600
C288        C  0.04972905  0.28483526  0.97796283     0.07600
C289        C  0.07434718  0.26713462  0.97678656     0.01400
H290        H  0.06743782  0.34987617  0.96582034     0.09000
H291        H  0.06500923  0.23518270  0.98304058     0.08100
N292        N  0.22152763  0.43208262  0.91483815    -0.35700
N293        N  0.25546747  0.42964766  0.91286985    -0.27900
C294        C  0.28436951  0.46219127  0.88888324    -0.03100
C295        C  0.26783518  0.48627401  0.87480348     0.05500
C296        C  0.22805083  0.46641272  0.89234004     0.03600
H297        H  0.31503279  0.46759103  0.88200502     0.08700
H298        H  0.20497524  0.47535472  0.88743197     0.07500
C299        C  0.69359932  0.35022156  0.27987488     0.45900
H300        H  0.69519604  0.35039186  0.31915086    -0.03200
C301        C  0.69033609  0.35067161  0.18771522     0.45900
H302        H  0.68909561  0.35160344  0.14858371    -0.03200
C303        C  0.64950345  0.32735999  0.26017501    -0.16900
C304        C  0.71318459  0.39360985  0.25867030    -0.16600
C305        C  0.71551904  0.32976597  0.25556560    -0.17000
C306        C  0.64768985  0.32725144  0.21136048    -0.17000
C307        C  0.71181322  0.39395271  0.20999547    -0.16500
C308        C  0.71378129  0.32991910  0.20676411    -0.16800
C309        C  0.60425833  0.33141519  0.14770527    -0.11900
C310        C  0.60922513  0.30751932  0.18239767     0.05100
C311        C  0.57800946  0.26588108  0.18785981    -0.07100
C312        C  0.54339536  0.24921425  0.15810901    -0.07900
C313        C  0.53878969  0.27289699  0.12282050    -0.02400
C314        C  0.56941908  0.31472151  0.11829377     0.04400
N315        N  0.56649219  0.34043252  0.08306235     0.66900
H316        H  0.62769020  0.36345355  0.14338554     0.15800
H317        H  0.51990541  0.21725705  0.16264209     0.15500
N318        N  0.58092022  0.23965123  0.22255056     0.74600
O319        O  0.55719068  0.36714534  0.09542308    -0.38900
O320        O  0.58228519  0.34306510  0.04282139    -0.38800
O321        O  0.55088049  0.21878094  0.24975449    -0.39500
O322        O  0.60956886  0.23136042  0.22005189    -0.39600
C323        C  0.77672517  0.47844153  0.12172739    -0.11900
C324        C  0.76570750  0.50828939  0.13226026     0.05100
C325        C  0.73524693  0.49931302  0.16702994    -0.07100
C326        C  0.71717644  0.46147277  0.19077632    -0.07900
C327        C  0.72911616  0.43220359  0.18110046    -0.02400
C328        C  0.75859903  0.44062025  0.14543114     0.04400
N329        N  0.77197647  0.41199345  0.13421361     0.66900
H330        H  0.79963212  0.48443583  0.09481345     0.15800
H331        H  0.69435435  0.45532594  0.21785933     0.15500
N332        N  0.72411908  0.52913223  0.18091463     0.74600
O333        O  0.75670417  0.38860904  0.09864371    -0.38900
O334        O  0.80543839  0.41755441  0.15148561    -0.38800
O335        O  0.68857738  0.52294562  0.17134807    -0.39500
O336        O  0.74621269  0.55668640  0.21063688    -0.39600
C337        C  0.73394869  0.26769035  0.11417710    -0.11900
C338        C  0.77535166  0.28018311  0.12321688     0.05100
C339        C  0.79693396  0.31098136  0.15778242    -0.07100
C340        C  0.77649912  0.32745629  0.18334082    -0.07900
C341        C  0.73468079  0.31400445  0.17532672    -0.02400
C342        C  0.71356662  0.28447622  0.13930460     0.04400
N343        N  0.67107311  0.26955842  0.12886251     0.66900
H344        H  0.71711682  0.24464789  0.08715162     0.15800
H345        H  0.79327342  0.35039600  0.21049269     0.15500
N346        N  0.83877740  0.32411019  0.16959810     0.69400
O347        O  0.66182050  0.28952623  0.10031310    -0.38900
O348        O  0.64577439  0.23176380  0.13460836    -0.38800
O349        O  0.86673970  0.35970132  0.15794397    -0.39500
O350        O  0.84652325  0.30412429  0.19980561    -0.39600
C351        C  0.27905213  0.55597091  0.85587700    -0.11900
C352        C  0.28759815  0.52432698  0.84601094     0.05100
C353        C  0.31488942  0.52973045  0.80885105    -0.07100
C354        C  0.33305934  0.56630535  0.78311857    -0.07900
C355        C  0.32384714  0.59764453  0.79141352    -0.02400
C356        C  0.29686154  0.59245088  0.82933545     0.04400
N357        N  0.28596614  0.62289952  0.84099871     0.66900
H358        H  0.25837930  0.55247603  0.88468943     0.15800
H359        H  0.35448282  0.56983936  0.75521004     0.15500
N360        N  0.32208535  0.49729641  0.79435376     0.74600
O361        O  0.24951173  0.61474995  0.83325338    -0.38900
O362        O  0.30660812  0.64928586  0.87248391    -0.38800
O363        O  0.29662194  0.46945856  0.76697985    -0.39500
O364        O  0.35726730  0.50127262  0.80019352    -0.39600
C365        C  0.50249344  0.72340859  0.81511658    -0.11900
C366        C  0.51180448  0.75868560  0.84228804     0.05100
C367        C  0.48467060  0.77463704  0.83971425    -0.07100
C368        C  0.45050696  0.75637527  0.80941469    -0.07900
C369        C  0.44147332  0.72145804  0.78247715    -0.02400
C370        C  0.46746271  0.70459875  0.78584977     0.04400
N371        N  0.45791525  0.66771752  0.76076285     0.66900
H372        H  0.52250286  0.71031377  0.81629310     0.15800
H373        H  0.43118438  0.77016845  0.80630698     0.15500
N374        N  0.48998366  0.80805165  0.86917454     0.74600
O375        O  0.47465994  0.66958679  0.72136237    -0.38900
O376        O  0.43317597  0.63315459  0.77842546    -0.38800
O377        O  0.49680633  0.84139506  0.85039714    -0.39500
O378        O  0.47930099  0.80136229  0.91212252    -0.39600
C379        C  0.33720352  0.73990437  0.82285111    -0.11900
C380        C  0.31457656  0.71334510  0.78547943     0.05100
C381        C  0.27339414  0.70436108  0.77843367    -0.07100
C382        C  0.25694772  0.72293020  0.80776648    -0.07900
C383        C  0.28024096  0.75028380  0.84426546    -0.02400
C384        C  0.32094917  0.75877095  0.85158351     0.04400
N385        N  0.34599521  0.78564813  0.88878019     0.66900
H386        H  0.36827667  0.74643822  0.83007421     0.15800
H387        H  0.22550993  0.71589760  0.80178226     0.15500
N388        N  0.24718584  0.67573737  0.74297628     0.74600
O389        O  0.34312504  0.77156350  0.93004794    -0.38900
O390        O  0.37649653  0.82020946  0.87847511    -0.38800
O391        O  0.23955045  0.63893308  0.74371891    -0.39500
O392        O  0.22594174  0.68511161  0.71651860    -0.39600
C393        C  0.31346880  0.77256780  0.64731396    -0.11900
C394        C  0.28295280  0.74803845  0.61402688     0.05100
C395        C  0.27012276  0.70561204  0.61100460    -0.07100
C396        C  0.28757966  0.68878382  0.64113286    -0.07900
C397        C  0.31713376  0.71320307  0.67511510    -0.02400
C398        C  0.33089394  0.75571284  0.67737181     0.04400
N399        N  0.36391888  0.78253054  0.70821508     0.66900
H400        H  0.32405426  0.80518517  0.65010637     0.15800
H401        H  0.27744284  0.65621554  0.63856018     0.15500
N402        N  0.24004925  0.67922034  0.57709476     0.74600
O403        O  0.39997967  0.78991941  0.69951028    -0.38900
O404        O  0.35863519  0.80479140  0.73781174    -0.38800
O405        O  0.25163088  0.67504351  0.53648837    -0.39500
O406        O  0.20441007  0.65323595  0.59107866    -0.39600
C407        C  0.48045026  0.73236816  0.60024669    -0.11900
C408        C  0.51524673  0.76516001  0.62081646     0.05100
C409        C  0.51152093  0.78107039  0.66434884    -0.07100
C410        C  0.47385588  0.76180449  0.68834463    -0.07900
C411        C  0.43928848  0.72559811  0.67076898    -0.02400
C412        C  0.44208057  0.71417771  0.62294913     0.04400
N413        N  0.40681194  0.69079565  0.59330479     0.66900
H414        H  0.48253706  0.72274146  0.56453804     0.15800
H415        H  0.47203980  0.77610487  0.72068032     0.15500
N416        N  0.54625975  0.81565931  0.68566849     0.74600
O417        O  0.38664600  0.70776630  0.58019248    -0.38900
O418        O  0.40531491  0.66252011  0.56744315    -0.38800
O419        O  0.55068817  0.85119028  0.68202677    -0.39500
O420        O  0.57362014  0.81101848  0.70610654    -0.39600
C421        C  0.77547069  0.45916073  0.28315468    -0.11900
C422        C  0.73340080  0.43117563  0.28884299     0.05100
C423        C  0.71118768  0.43908049  0.32343468    -0.07100
C424        C  0.73104744  0.47485986  0.35121885    -0.07900
C425        C  0.77316315  0.50324165  0.34551518    -0.02400
C426        C  0.79552818  0.49488722  0.31111472     0.04400
N427        N  0.83809916  0.52302596  0.30249445     0.66900
H428        H  0.79282472  0.45332900  0.25658120     0.15800
H429        H  0.71325049  0.48045129  0.37738557     0.15500
N430        N  0.66795957  0.41213284  0.32915051     0.74600
O431        O  0.86468135  0.51386980  0.31574406    -0.38900
O432        O  0.84806179  0.55174243  0.27305596    -0.38800
O433        O  0.65483911  0.38961177  0.36541553    -0.39500
O434        O  0.64314042  0.41723374  0.30377212    -0.39600
C435        C  0.78254304  0.30958920  0.34000961    -0.11900
C436        C  0.76908759  0.26790390  0.33058722     0.05100
C437        C  0.73705289  0.24657422  0.29722881    -0.07100
C438        C  0.71967585  0.26715735  0.27393457    -0.07900
C439        C  0.73364179  0.30888837  0.28286282    -0.02400
C440        C  0.76499715  0.33007531  0.31669131     0.04400
N441        N  0.78086808  0.37289137  0.32596317     0.66900
H442        H  0.80689452  0.32648256  0.36562898     0.15800
H443        H  0.69552636  0.25058382  0.24796013     0.15500
N444        N  0.72337988  0.20478463  0.28437593     0.74600
O445        O  0.76909357  0.38378411  0.36234431    -0.38900
O446        O  0.81265681  0.39909825  0.30437576    -0.38800
O447        O  0.68720497  0.17711854  0.29443985    -0.39500
O448        O  0.74395376  0.19703244  0.25494474    -0.39600
C449        C  0.32230406  0.53958422  0.63461061    -0.11900
C450        C  0.27914626  0.51848239  0.62966820     0.05100
C451        C  0.25700921  0.53551868  0.65164713    -0.07100
C452        C  0.27803698  0.57240216  0.67745460    -0.07900
C453        C  0.32085694  0.59283029  0.68267373    -0.02400
C454        C  0.34327994  0.57616799  0.66090909     0.04400
N455        N  0.38694421  0.59447856  0.66682903     0.66900
H456        H  0.34031558  0.52774494  0.61803405     0.15800
H457        H  0.26065820  0.58497560  0.69416742     0.15500
N458        N  0.21312656  0.51522687  0.65007833     0.74600
O459        O  0.40053198  0.57752296  0.69433803    -0.38900
O460        O  0.41017126  0.61672667  0.63414849    -0.38800
O461        O  0.19257884  0.48978079  0.68211101    -0.39500
O462        O  0.19583969  0.52952356  0.62409134    -0.39600
C463        C  0.57110948  0.26469955  0.35512268    -0.11900
C464        C  0.54013599  0.27445784  0.34625635     0.05100
C465        C  0.54664259  0.30374229  0.31094912    -0.07100
C466        C  0.58285593  0.32130313  0.28427628    -0.07900
C467        C  0.61301274  0.31023229  0.29178621    -0.02400
C468        C  0.60751847  0.28254878  0.32862819     0.04400
N469        N  0.63713734  0.26995528  0.33747541     0.66900
H470        H  0.56680954  0.24261039  0.38240300     0.15800
H471        H  0.58700768  0.34308969  0.25667449     0.15500
N472        N  0.51574168  0.31396930  0.29936818     0.74600
O473        O  0.66084017  0.28455286  0.37285311    -0.38900
O474        O  0.63262476  0.23765152  0.31787013    -0.38800
O475        O  0.52145174  0.34920365  0.30988878    -0.39500
O476        O  0.48776508  0.29176613  0.27015150    -0.39600
loop_ 
_geom_bond_atom_site_label_1 
_geom_bond_atom_site_label_2 
_geom_bond_distance 
_geom_bond_site_symmetry_2 
_ccdc_geom_bond_type 
N1            N2   1.323       .  A
N1            C5   1.350       .  A
N1           Cu9   2.087       .  S
N2            C3   1.343       .  A
N2           Cu8   2.071       .  S
C3            C4   1.381       .  A
C3            H6   1.082       .  S
C4            C5   1.387       .  A
C4          C134   1.474   1_545  S
C5            H7   1.082       .  S
Cu8          N11   2.070       .  S
Cu9          N19   2.087       .  S
Cu10         N12   2.069       .  S
Cu10         N18   2.070       .  S
N11          N12   1.321       .  A
N11          C15   1.344       .  A
N12          C13   1.346       .  A
C13          C14   1.383       .  A
C13          H16   1.082       .  S
C14          C15   1.383       .  A
C14          C28   1.470       .  S
C15          H17   1.082       .  S
N18          N19   1.323       .  A
N18          C22   1.344       .  A
N19          C20   1.346       .  A
C20          C21   1.387       .  A
C20          H23   1.082       .  S
C21          C22   1.383       .  A
C21         C464   1.482       .  S
C22          H24   1.081       .  S
N25          N26   1.321       .  A
N25          C29   1.347       .  A
N25         Cu33   2.077       .  S
N26          C27   1.344       .  A
N26         Cu32   2.066       .  S
C27          C28   1.381       .  A
C27          H30   1.082       .  S
C28          C29   1.384       .  A
C29          H31   1.082       .  S
Cu32         N35   2.067       .  S
Cu33         N43   2.078       .  S
Cu34         N36   2.081       .  S
Cu34         N42   2.082       .  S
N35          N36   1.322       .  A
N35          C39   1.342       .  A
N36          C37   1.348       .  A
C37          C38   1.385       .  A
C37          H40   1.082       .  S
C38          C39   1.381       .  A
C38          C62   1.471       .  S
C39          H41   1.082       .  S
N42          N43   1.321       .  A
N42          C46   1.346       .  A
N43          C44   1.343       .  A
C44          C45   1.390       .  A
C44          H47   1.081       .  S
C45          C46   1.391       .  A
C45         C450   1.496       .  S
C46          H48   1.079       .  S
N49          N50   1.321       .  A
N49          C53   1.346       .  A
N49         Cu57   2.073       .  S
N50          C51   1.343       .  A
N50         Cu56   2.066       .  S
C51          C52   1.381       .  A
C51          H54   1.082       .  S
C52          C53   1.384       .  A
C52         C110   1.469   1_545  S
C53          H55   1.082       .  S
Cu56         N59   2.066       .  S
Cu57         N67   2.074       .  S
Cu58         N60   2.080       .  S
Cu58         N66   2.081       .  S
N59          N60   1.322       .  A
N59          C63   1.342       .  A
N60          C61   1.348       .  A
C61          C62   1.385   1_655  A
C61          H64   1.082       .  S
C62          C63   1.381   1_455  A
C63          H65   1.082       .  S
N66          N67   1.323       .  A
N66          C70   1.345       .  A
N67          C68   1.345       .  A
C68          C69   1.385       .  A
C68          H71   1.081       .  S
C69          C70   1.386       .  A
C69         C436   1.484       .  S
C70          H72   1.082       .  S
N73          N74   1.322       .  A
N73          C77   1.348       .  A
N73         Cu81   2.085       .  S
N74          C75   1.343       .  A
N74         Cu80   2.068       .  S
C75          C76   1.381       .  A
C75          H78   1.082       .  S
C76          C77   1.386       .  A
C76         C100   1.471       .  S
C77          H79   1.082       .  S
Cu80         N83   2.068       .  S
Cu81         N91   2.086       .  S
Cu82         N84   2.072       .  S
Cu82         N90   2.073       .  S
N83          N84   1.321       .  A
N83          C87   1.344       .  A
N84          C85   1.345       .  A
C85          C86   1.383   1_655  A
C85          H88   1.082       .  S
C86          C87   1.382   1_455  A
C86         C124   1.469       .  S
C87          H89   1.082       .  S
N90          N91   1.322       .  A
N90          C94   1.345       .  A
N91          C92   1.345       .  A
C92          C93   1.388       .  A
C92          H95   1.082       .  S
C93          C94   1.386       .  A
C93         C425   1.488       .  S
C94          H96   1.080       .  S
N97          N98   1.322       .  A
N97         C101   1.347       .  A
N97        Cu105   2.074       .  S
N98          C99   1.343       .  A
N98        Cu104   2.072       .  S
C99         C100   1.382       .  A
C99         H102   1.082       .  S
C100        C101   1.384       .  A
C101        H103   1.082       .  S
Cu104       N107   2.072       .  S
Cu105       N115   2.074       .  S
Cu106       N108   2.072       .  S
Cu106       N114   2.074       .  S
N107        N108   1.322       .  A
N107        C111   1.344       .  A
N108        C109   1.346       .  A
C109        C110   1.383       .  A
C109        H112   1.082       .  S
C110        C111   1.382       .  A
C111        H113   1.082       .  S
N114        N115   1.323       .  A
N114        C118   1.346       .  A
N115        C116   1.344       .  A
C116        C117   1.380       .  A
C116        H119   1.082       .  S
C117        C118   1.382       .  A
C117        C408   1.472       .  S
C118        H120   1.082       .  S
N121        N122   1.322       .  A
N121        C125   1.345       .  A
N121       Cu129   2.070       .  S
N122        C123   1.345       .  A
N122       Cu128   2.071       .  S
C123        C124   1.383       .  A
C123        H126   1.082       .  S
C124        C125   1.383       .  A
C125        H127   1.082       .  S
Cu128       N131   2.071       .  S
Cu129       N139   2.071       .  S
Cu130       N132   2.086       .  S
Cu130       N138   2.086       .  S
N131        N132   1.322       .  A
N131        C135   1.343       .  A
N132        C133   1.349       .  A
C133        C134   1.386       .  A
C133        H136   1.082       .  S
C134        C135   1.382       .  A
C135        H137   1.082       .  S
N138        N139   1.322       .  A
N138        C142   1.345       .  A
N139        C140   1.345       .  A
C140        C141   1.385       .  A
C140        H143   1.080       .  S
C141        C142   1.389       .  A
C141        C394   1.486       .  S
C142        H144   1.082       .  S
C145        H146   1.107       .  S
C145        C151   1.542       .  S
C145        C150   1.532       .  S
C145        C149   1.546       .  S
C147        H148   1.091       .  S
C147        C153   1.539       .  S
C147        C152   1.544       .  S
C147        C154   1.536       .  S
C149        C152   1.393       .  D
C149        C369   1.486       .  S
C150        C153   1.376       .  D
C150        C355   1.501       .  S
C151        C154   1.375       .  D
C151        C380   1.501       .  S
C152        C411   1.530       .  S
C153        C453   1.485       .  S
C154        C397   1.483       .  S
N155        N156   1.321   1_554  A
N155        C159   1.346   1_554  A
N155       Cu163   2.069       .  S
N156        C157   1.342       .  A
N156       Cu162   2.066   1_556  S
C157        C158   1.381   1_655  A
C157        H160   1.082       .  S
C158        C159   1.383   1_455  A
C158        C288   1.468       .  S
C159        H161   1.082   1_556  S
Cu162       N165   2.066   1_554  S
Cu163       N173   2.070       .  S
Cu164       N166   2.085       .  S
Cu164       N172   2.086       .  S
N165        N166   1.322   1_556  A
N165        C169   1.342       .  A
N166        C167   1.349   1_554  A
C167        C168   1.387       .  A
C167        H170   1.082   1_556  S
C168        C169   1.381       .  A
C168        C182   1.473   1_545  S
C169        H171   1.082       .  S
N172        N173   1.323       .  A
N172        C176   1.345       .  A
N173        C174   1.345       .  A
C174        C175   1.384       .  A
C174        H177   1.081       .  S
C175        C176   1.387       .  A
C175        C338   1.483       .  S
C176        H178   1.082       .  S
N179        N180   1.322       .  A
N179        C183   1.349       .  A
N179       Cu187   2.081       .  S
N180        C181   1.343       .  A
N180       Cu186   2.072       .  S
C181        C182   1.382       .  A
C181        H184   1.082       .  S
C182        C183   1.385       .  A
C183        H185   1.082       .  S
Cu186       N189   2.072       .  S
Cu187       N197   2.082       .  S
Cu188       N190   2.084       .  S
Cu188       N196   2.084       .  S
N189        N190   1.323       .  A
N189        C193   1.345       .  A
N190        C191   1.347       .  A
C191        C192   1.385       .  A
C191        H194   1.082       .  S
C192        C193   1.382       .  A
C192        C206   1.473       .  S
C193        H195   1.082       .  S
N196        N197   1.322       .  A
N196        C200   1.347       .  A
N197        C198   1.344       .  A
C198        C199   1.389       .  A
C198        H201   1.080       .  S
C199        C200   1.390       .  A
C199        C366   1.494       .  S
C200        H202   1.081       .  S
N203        N204   1.322       .  A
N203        C207   1.346       .  A
N203       Cu211   2.076       .  S
N204        C205   1.346   1_554  A
N204       Cu210   2.078       .  S
C205        C206   1.384       .  A
C205        H208   1.082       .  S
C206        C207   1.384   1_556  A
C207        H209   1.082       .  S
Cu210       N213   2.078       .  S
Cu211       N221   2.076       .  S
Cu212       N214   2.088       .  S
Cu212       N220   2.088       .  S
N213        N214   1.323       .  A
N213        C217   1.345   1_554  A
N214        C215   1.349       .  A
C215        C216   1.386   1_654  A
C215        H218   1.082       .  S
C216        C217   1.383   1_455  A
C216        C240   1.476       .  S
C217        H219   1.082       .  S
N220        N221   1.323       .  A
N220        C224   1.346       .  A
N221        C222   1.346       .  A
C222        C223   1.386       .  A
C222        H225   1.081       .  S
C223        C224   1.388       .  A
C223        C324   1.487       .  S
C224        H226   1.082       .  S
N227        N228   1.322       .  A
N227        C231   1.349       .  A
N227       Cu235   2.081       .  S
N228        C229   1.343       .  A
N228       Cu234   2.073       .  S
C229        C230   1.382       .  A
C229        H232   1.082       .  S
C230        C231   1.386       .  A
C230        C264   1.474   1_565  S
C231        H233   1.082       .  S
Cu234       N237   2.073       .  S
Cu235       N245   2.082       .  S
Cu236       N238   2.089       .  S
Cu236       N244   2.090       .  S
N237        N238   1.322       .  A
N237        C241   1.344       .  A
N238        C239   1.350       .  A
C239        C240   1.387       .  A
C239        H242   1.082       .  S
C240        C241   1.382       .  A
C241        H243   1.082       .  S
N244        N245   1.324       .  A
N244        C248   1.347       .  A
N245        C246   1.346       .  A
C246        C247   1.386       .  A
C246        H249   1.081       .  S
C247        C248   1.388       .  A
C247        C383   1.487       .  S
C248        H250   1.082       .  S
N251        N252   1.321       .  A
N251        C255   1.344       .  A
N251       Cu259   2.068       .  S
N252        C253   1.345   1_554  A
N252       Cu258   2.069       .  S
C253        C254   1.382       .  A
C253        H256   1.082       .  S
C254        C255   1.382   1_556  A
C254        C278   1.468       .  S
C255        H257   1.082       .  S
Cu258       N261   2.070       .  S
Cu259       N269   2.068       .  S
Cu260       N262   2.088       .  S
Cu260       N268   2.089       .  S
N261        N262   1.323       .  A
N261        C265   1.343   1_554  A
N262        C263   1.350   1_554  A
C263        C264   1.387       .  A
C263        H266   1.082   1_556  S
C264        C265   1.381       .  A
C265        H267   1.082       .  S
N268        N269   1.322       .  A
N268        C272   1.345       .  A
N269        C270   1.345       .  A
C270        C271   1.384       .  A
C270        H273   1.081       .  S
C271        C272   1.389       .  A
C271        C313   1.485       .  S
C272        H274   1.082       .  S
N275        N276   1.321       .  A
N275        C279   1.344       .  A
N275       Cu283   2.071       .  S
N276        C277   1.344       .  A
N276       Cu282   2.067       .  S
C277        C278   1.382       .  A
C277        H280   1.082       .  S
C278        C279   1.382       .  A
C279        H281   1.082       .  S
Cu282       N285   2.067       .  S
Cu283       N293   2.071       .  S
Cu284       N286   2.074       .  S
Cu284       N292   2.074       .  S
N285        N286   1.323       .  A
N285        C289   1.342       .  A
N286        C287   1.346       .  A
C287        C288   1.383       .  A
C287        H290   1.082       .  S
C288        C289   1.380       .  A
C289        H291   1.082       .  S
N292        N293   1.322       .  A
N292        C296   1.345       .  A
N293        C294   1.344       .  A
C294        C295   1.385       .  A
C294        H297   1.081       .  S
C295        C296   1.385       .  A
C295        C352   1.482       .  S
C296        H298   1.082       .  S
C299        H300   1.109       .  S
C299        C305   1.537       .  S
C299        C304   1.535       .  S
C299        C303   1.535       .  S
C301        H302   1.106       .  S
C301        C307   1.536       .  S
C301        C306   1.541       .  S
C301        C308   1.534       .  S
C303        C306   1.378       .  D
C303        C467   1.486       .  S
C304        C307   1.374       .  D
C304        C422   1.485       .  S
C305        C308   1.378       .  D
C305        C439   1.484       .  S
C306        C310   1.490       .  S
C307        C327   1.490       .  S
C308        C341   1.490       .  S
C309        C310   1.402       .  A
C309        C314   1.401       .  A
C309        H316   1.084       .  S
C310        C311   1.416       .  A
C311        C312   1.401       .  A
C311        N318   1.431       .  S
C312        C313   1.402       .  A
C312        H317   1.083       .  S
C313        C314   1.412       .  A
C314        N315   1.428       .  S
N315        O319   1.262       .  A
N315        O320   1.262       .  A
N318        O322   1.261       .  A
N318        O321   1.263       .  A
C323        C324   1.404       .  A
C323        C328   1.401       .  A
C323        H330   1.083       .  S
C324        C325   1.414       .  A
C325        C326   1.402       .  A
C325        N332   1.428       .  S
C326        C327   1.403       .  A
C326        H331   1.084       .  S
C327        C328   1.410       .  A
C328        N329   1.428       .  S
N329        O333   1.262       .  A
N329        O334   1.261       .  A
N332        O336   1.262       .  A
N332        O335   1.262       .  A
C337        C338   1.402       .  A
C337        C342   1.400       .  A
C337        H344   1.084       .  S
C338        C339   1.412       .  A
C339        C340   1.400       .  A
C339        N346   1.429       .  S
C340        C341   1.404       .  A
C340        H345   1.084       .  S
C341        C342   1.413       .  A
C342        N343   1.430       .  S
N343        O347   1.262       .  A
N343        O348   1.262       .  A
N346        O350   1.262       .  A
N346        O349   1.262       .  A
C351        C352   1.402       .  A
C351        C356   1.404       .  A
C351        H358   1.086       .  S
C352        C353   1.408       .  A
C353        C354   1.394       .  A
C353        N360   1.429       .  S
C354        C355   1.399       .  A
C354        H359   1.085       .  S
C355        C356   1.419       .  A
C356        N357   1.429       .  S
N357        O361   1.261       .  A
N357        O362   1.262       .  A
N360        O364   1.262       .  A
N360        O363   1.262       .  A
C365        C366   1.410       .  A
C365        C370   1.404       .  A
C365        H372   1.083       .  S
C366        C367   1.416       .  A
C367        C368   1.399       .  A
C367        N374   1.429       .  S
C368        C369   1.398       .  A
C368        H373   1.084       .  S
C369        C370   1.405       .  A
C370        N371   1.427       .  S
N371        O375   1.262       .  A
N371        O376   1.261       .  A
N374        O378   1.262       .  A
N374        O377   1.262       .  A
C379        C380   1.403       .  A
C379        C384   1.399       .  A
C379        H386   1.083       .  S
C380        C381   1.420       .  A
C381        C382   1.405       .  A
C381        N388   1.433       .  S
C382        C383   1.403       .  A
C382        H387   1.085       .  S
C383        C384   1.410       .  A
C384        N385   1.429       .  S
N385        O389   1.262       .  A
N385        O390   1.262       .  A
N388        O392   1.263       .  A
N388        O391   1.261       .  A
C393        C394   1.405       .  A
C393        C398   1.400       .  A
C393        H400   1.083       .  S
C394        C395   1.415       .  A
C395        C396   1.401       .  A
C395        N402   1.428       .  S
C396        C397   1.400       .  A
C396        H401   1.084       .  S
C397        C398   1.409       .  A
C398        N399   1.431       .  S
N399        O403   1.262       .  A
N399        O404   1.262       .  A
N402        O406   1.262       .  A
N402        O405   1.262       .  A
C407        C408   1.393       .  A
C407        C412   1.403       .  A
C407        H414   1.084       .  S
C408        C409   1.400       .  A
C409        C410   1.400       .  A
C409        N416   1.430       .  S
C410        C411   1.415       .  A
C410        H415   1.075       .  S
C411        C412   1.433       .  A
C412        N413   1.432       .  S
N413        O417   1.263       .  A
N413        O418   1.262       .  A
N416        O420   1.262       .  A
N416        O419   1.262       .  A
C421        C422   1.401       .  A
C421        C426   1.402       .  A
C421        H428   1.084       .  S
C422        C423   1.407       .  A
C423        C424   1.400       .  A
C423        N430   1.428       .  S
C424        C425   1.405       .  A
C424        H429   1.083       .  S
C425        C426   1.416       .  A
C426        N427   1.428       .  S
N427        O431   1.262       .  A
N427        O432   1.262       .  A
N430        O434   1.262       .  A
N430        O433   1.262       .  A
C435        C436   1.405       .  A
C435        C440   1.401       .  A
C435        H442   1.083       .  S
C436        C437   1.414       .  A
C437        C438   1.399       .  A
C437        N444   1.429       .  S
C438        C439   1.401       .  A
C438        H443   1.084       .  S
C439        C440   1.408       .  A
C440        N441   1.428       .  S
N441        O445   1.262       .  A
N441        O446   1.262       .  A
N444        O448   1.262       .  A
N444        O447   1.262       .  A
C449        C450   1.408       .  A
C449        C454   1.401       .  A
C449        H456   1.082       .  S
C450        C451   1.417       .  A
C451        C452   1.402       .  A
C451        N458   1.427       .  S
C452        C453   1.398       .  A
C452        H457   1.084       .  S
C453        C454   1.413       .  A
C454        N455   1.433       .  S
N455        O459   1.261       .  A
N455        O460   1.259       .  A
N458        O462   1.262       .  A
N458        O461   1.262       .  A
C463        C464   1.403       .  A
C463        C468   1.401       .  A
C463        H470   1.084       .  S
C464        C465   1.413       .  A
C465        C466   1.398       .  A
C465        N472   1.428       .  S
C466        C467   1.402       .  A
C466        H471   1.084       .  S
C467        C468   1.412       .  A
C468        N469   1.429       .  S
N469        O473   1.262       .  A
N469        O474   1.261       .  A
N472        O476   1.262       .  A
N472        O475   1.262       .  A
