geometry optimzed in LAMMPS
_audit_creation_date              2020-11-30 
_audit_creation_method            'lammps2cif' 
_symmetry_space_group_name_H-M    'P1' 
_symmetry_Int_Tables_number       1 
_symmetry_cell_setting            triclinic 
loop_ 
_symmetry_equiv_pos_as_xyz 
  x,y,z 
_cell_length_a                    29.80010034 
_cell_length_b                    33.01800264898404 
_cell_length_c                    31.45375943100642 
_cell_angle_alpha                 89.80416447768857 
_cell_angle_beta                  90.39165805537202 
_cell_angle_gamma                 89.94019113386727 
loop_ 
_atom_site_label 
_atom_site_type_symbol 
_atom_site_fract_x 
_atom_site_fract_y 
_atom_site_fract_z 
_atom_site_charge 
C1          C  0.38749355  0.40895566  0.10127563     0.42300
N2          N  0.38130130  0.46085454  0.06048030     0.01200
C3          C  0.18881327  0.58037156  0.05969628    -0.06700
H4          H  0.15190201  0.44065440  0.05569380     0.06700
C5          C  0.24237900  0.42766855  0.90417307    -0.07000
Co6        Co  0.30191047  0.51158005  0.08249730     0.74200
N7          N  0.21701105  0.46920207  0.05651549    -0.26200
Co8        Co  0.21985809  0.50783660  0.00320967     0.74100
C9          C  0.19579552  0.41728956  0.91213958     0.42400
N10         N  0.35245851  0.44837833  0.93816556     0.00800
N11         N  0.21865554  0.45988994  0.95939406     0.00900
N12         N  0.24532625  0.58295940  0.10720384    -0.47100
H13         H  0.32593751  0.42778038  0.14014753     0.06700
N14         N  0.24915488  0.47051022  0.08564841     0.01200
N15         N  0.22553759  0.54658187  0.95003965     0.00900
C16         C  0.21155737  0.58619387  0.89697264     0.42500
N17         N  0.38377380  0.45107109  0.96771255    -0.25700
C18         C  0.36202655  0.58673825  0.09962362    -0.06600
N19         N  0.40497492  0.42746876  0.06692432    -0.46800
N20         N  0.19509988  0.57221016  0.93441066    -0.47000
C21         C  0.40277260  0.60341894  0.08125981     0.42300
N22         N  0.25461534  0.55761272  0.07606600     0.01200
N23         N  0.38907126  0.53842420  0.95660584    -0.25700
N24         N  0.34848644  0.46497745  0.08798314    -0.26200
N25         N  0.35808750  0.53647982  0.92667805     0.00800
H26         H  0.44350181  0.58021102  0.96803662     0.06700
H27         H  0.27420550  0.56491552  0.86161699     0.06700
N28         N  0.22196792  0.55534069  0.04752525    -0.26200
N29         N  0.25304763  0.45479593  0.93372062    -0.25800
N30         N  0.38664009  0.54814233  0.04981047     0.01200
C31         C  0.19933052  0.43183121  0.11363975     0.42600
C32         C  0.40898737  0.41763031  0.96715243    -0.07100
N33         N  0.25929684  0.54129827  0.92358042    -0.25800
H34         H  0.26218712  0.42156492  0.87621697     0.06700
N35         N  0.23978388  0.44894453  0.11984854    -0.47100
H36         H  0.43718466  0.41173384  0.98804184     0.06700
C37         C  0.39792778  0.58797139  0.90931595     0.42400
C38         C  0.34988171  0.43376185  0.11524142    -0.06600
Co39       Co  0.38638735  0.49968549  0.00867844     0.73800
N40         N  0.35392959  0.41351803  0.91753732    -0.46800
C41         C  0.20457170  0.59908512  0.09940491     0.42700
N42         N  0.41556727  0.57843496  0.04988410    -0.46800
Co43       Co  0.30595336  0.49499498  0.93007403     0.73900
C44         C  0.25379567  0.56545695  0.88991645    -0.07100
C45         C  0.18380365  0.44547539  0.07138657    -0.06700
N46         N  0.35454585  0.55258754  0.07803456    -0.26200
N47         N  0.18292998  0.43899597  0.94656516    -0.47000
H48         H  0.15551431  0.58121684  0.04582745     0.06700
C49         C  0.41630835  0.56966717  0.94802608    -0.07100
Cl50       Cl  0.30331356  0.50359695  0.00613469    -0.50100
C51         C  0.38865054  0.39232716  0.93437051     0.42500
H52         H  0.34052177  0.59928966  0.12380885     0.06700
N53         N  0.36155729  0.56598814  0.89839624    -0.46800
C54         C  0.80866055  0.41662014  0.10496104     0.42300
N55         N  0.78992406  0.45883170  0.05542506     0.01200
C56         C  0.60000592  0.57838329  0.04705424    -0.06700
H57         H  0.57365043  0.41505878  0.02749315     0.06700
C58         C  0.66492706  0.42236054  0.90146645    -0.07000
Co59       Co  0.70497949  0.50140937  0.07921442     0.74200
N60         N  0.62617360  0.45645176  0.04502580    -0.26200
Co61       Co  0.62701146  0.50034807  0.99786486     0.74100
C62         C  0.62779009  0.39879343  0.91865743     0.42400
N63         N  0.76412821  0.45841170  0.92957784     0.00800
N64         N  0.63235135  0.45558132  0.95163442     0.00900
N65         N  0.65334024  0.57897602  0.09821149    -0.47100
H66         H  0.74317009  0.42790529  0.14059603     0.06700
N67         N  0.65627578  0.45649828  0.07579998     0.01200
N68         N  0.63016438  0.54444227  0.95071311     0.00900
C69         C  0.62091973  0.59921130  0.91475863     0.42500
N70         N  0.79547927  0.45929922  0.95935958    -0.25700
C71         C  0.76135675  0.57219125  0.11310430    -0.06600
N72         N  0.82320470  0.43544745  0.06924886    -0.46800
N73         N  0.60417437  0.57675951  0.94687771    -0.47000
C74         C  0.80546538  0.58925318  0.10495783     0.42300
N75         N  0.65538713  0.54556284  0.07520842     0.01200
N76         N  0.79405439  0.54641671  0.95874799    -0.25700
N77         N  0.75532372  0.45809794  0.08134738    -0.26200
N78         N  0.76246919  0.54651732  0.92908162     0.00800
H79         H  0.85835499  0.57640359  0.96267147     0.06700
H80         H  0.68426924  0.58653650  0.87520868     0.06700
N81         N  0.62523605  0.54491900  0.04441927    -0.26200
N82         N  0.66567775  0.45639471  0.92438348    -0.25800
N83         N  0.78879355  0.54648491  0.05569901     0.01200
C84         C  0.61862596  0.40187755  0.08600185     0.42600
C85         C  0.82778097  0.43283045  0.94868369    -0.07100
N86         N  0.66354756  0.54468742  0.92356434    -0.25800
H87         H  0.68941441  0.41397672  0.87789466     0.06700
N88         N  0.65334560  0.42422315  0.10064588    -0.47100
H89         H  0.85954534  0.42904874  0.96505391     0.06700
C90         C  0.81059399  0.58977789  0.90629833     0.42400
C91         C  0.76344951  0.43150424  0.11244301    -0.06600
Co92       Co  0.79312760  0.50285888  0.00742243     0.73800
N93         N  0.77316956  0.43255734  0.89895603    -0.46800
C94         C  0.61878503  0.60115068  0.08273252     0.42700
N95         N  0.82094622  0.57126001  0.06921192    -0.46800
Co96       Co  0.71377191  0.50157876  0.92585912     0.73900
C97         C  0.66021277  0.57763572  0.89901653    -0.07100
C98         C  0.60033252  0.42355415  0.04910325    -0.06700
N99         N  0.75434172  0.54566922  0.08185288    -0.26200
N100        N  0.60925437  0.42142211  0.94965250    -0.47000
H101        H  0.57421025  0.58694097  0.02461789     0.06700
C102        C  0.82629187  0.57256655  0.94688749    -0.07100
Cl103      Cl  0.70996230  0.50167212  0.00259968    -0.50100
C104        C  0.81232353  0.41446213  0.90876058     0.42500
H105        H  0.74068979  0.57524418  0.14105567     0.06700
N106        N  0.77126652  0.57160201  0.89750253    -0.46800
C107        C  0.41286153  0.10586724  0.11473006     0.42300
N108        N  0.44778768  0.04894987  0.12146874     0.01200
C109        C  0.42279590  0.93609711  0.30749726    -0.06700
H110        H  0.43685884  0.07598071  0.33730256     0.06700
C111        C  0.60744928  0.07169156  0.25750267    -0.07000
Co112      Co  0.41335075  0.00277943  0.19645757     0.74200
N113        N  0.44002740  0.04679466  0.27593061    -0.26200
Co114      Co  0.49212486  0.00346409  0.27894880     0.74100
C115        C  0.59658624  0.08815952  0.29890038     0.42400
N116        N  0.57667332  0.04659852  0.15417271     0.00800
N117        N  0.54407040  0.04716727  0.27886849     0.00900
N118        N  0.37641160  0.93653665  0.25079513    -0.47100
H119        H  0.36375577  0.08849650  0.16807253     0.06700
N120        N  0.41158603  0.04635436  0.24352345     0.01200
N121        N  0.54383846  0.95972653  0.28027793     0.00900
C122        C  0.59539616  0.91827375  0.30125680     0.42500
N123        N  0.54674450  0.04676708  0.12324588    -0.25700
C124        C  0.39185770  0.92498444  0.14540139    -0.06600
N125        N  0.44778035  0.08370994  0.10019539    -0.46800
N126        N  0.55679460  0.93685449  0.31306085    -0.47000
C127        C  0.41227305  0.90365134  0.10972935     0.42300
N128        N  0.41209369  0.95912955  0.24390898     0.01200
N129        N  0.54535327  0.95855306  0.12338778    -0.25700
N130        N  0.41575206  0.04741343  0.15000562    -0.26200
N131        N  0.57485328  0.95746376  0.15473670     0.00800
H132        H  0.53030201  0.91765066  0.07209795     0.06700
H133        H  0.63735808  0.92982907  0.24187196     0.06700
N134        N  0.44011013  0.95988794  0.27669882    -0.26200
N135        N  0.57415485  0.04624749  0.24818762    -0.25800
N136        N  0.44695211  0.95974589  0.12019949     0.01200
C137        C  0.38091902  0.08765675  0.28739724     0.42600
C138        C  0.55323925  0.07953723  0.09899547    -0.07100
N139        N  0.57351372  0.95908848  0.24924031    -0.25800
H140        H  0.63865550  0.07391111  0.24028568     0.06700
N141        N  0.37636948  0.06976018  0.24936473    -0.47100
H142        H  0.53243837  0.08889543  0.07242302     0.06700
C143        C  0.58696067  0.90262567  0.11987144     0.42400
C144        C  0.39109797  0.08107892  0.14716184    -0.06600
Co145      Co  0.49666336  0.00363826  0.12076676     0.73800
N146        N  0.60281942  0.07897824  0.15342134    -0.46800
C147        C  0.38031481  0.92038386  0.28990908     0.42700
N148        N  0.44621732  0.92714878  0.09596670    -0.46800
Co149      Co  0.57531473  0.00226965  0.20134503     0.73900
C150        C  0.60638025  0.93324366  0.25922818    -0.07100
C151        C  0.42336102  0.07209393  0.30558486    -0.06700
N152        N  0.41599276  0.95887986  0.14978190    -0.26200
N153        N  0.55720987  0.07086051  0.31077540    -0.47000
H154        H  0.43532217  0.93413279  0.33978760     0.06700
C155        C  0.55088821  0.92561969  0.09919328    -0.07100
Cl156      Cl  0.49437306  0.00304150  0.19962691    -0.50100
C157        C  0.59039248  0.10102563  0.11908695     0.42500
H158        H  0.36518551  0.91552246  0.16629742     0.06700
N159        N  0.59995137  0.92436853  0.15413081    -0.46800
C160        C  0.37709062  0.07940989  0.72565897     0.42300
N161        N  0.43638117  0.04246126  0.73649981     0.01200
C162        C  0.46415860  0.91357741  0.90918871    -0.06700
H163        H  0.48200116  0.07738505  0.94041863     0.06700
C164        C  0.60959524  0.07626813  0.84845220    -0.07000
Co165      Co  0.42096414  0.99458279  0.81647380     0.74200
N166        N  0.46016496  0.03676331  0.89120704    -0.26200
Co167      Co  0.51125855  0.99512762  0.88546408     0.74100
C168        C  0.59360651  0.09802485  0.88558997     0.42400
N169        N  0.57366861  0.04542085  0.75359540     0.00800
N170        N  0.55804636  0.04177307  0.88001705     0.00900
N171        N  0.40701048  0.91445322  0.86190744    -0.47100
H172        H  0.34930952  0.06337898  0.79123599     0.06700
N173        N  0.42603841  0.03726724  0.86450282     0.01200
N174        N  0.56222619  0.95338046  0.87789217     0.00900
C175        C  0.60202126  0.89950474  0.88314030     0.42500
N176        N  0.54038042  0.04574613  0.72555636    -0.25700
C177        C  0.38281976  0.92679593  0.76086982    -0.06600
N178        N  0.41521087  0.06497247  0.70727579    -0.46800
N179        N  0.56895464  0.92080466  0.90156953    -0.47000
C180        C  0.38729392  0.91376022  0.71696046     0.42300
N181        N  0.43020116  0.94847163  0.86056307     0.01200
N182        N  0.54338196  0.95862724  0.72211050    -0.25700
N183        N  0.41270454  0.03984764  0.77174996    -0.26200
N184        N  0.57621129  0.95788492  0.75061810     0.00800
H185        H  0.53620205  0.92940510  0.66094721     0.06700
H186        H  0.63786904  0.91301449  0.82024714     0.06700
N187        N  0.46433970  0.94854638  0.88733373    -0.26200
N188        N  0.58488901  0.04264188  0.84693099    -0.25800
N189        N  0.44097877  0.95513776  0.73275852     0.01200
C190        C  0.41837967  0.09139840  0.90123165     0.42600
C191        C  0.55082874  0.07274488  0.69488812    -0.07100
N192        N  0.58803825  0.95439633  0.84414741    -0.25800
H193        H  0.63371421  0.08547994  0.82482591     0.06700
N194        N  0.40056331  0.06980122  0.86892448    -0.47100
H195        H  0.53246379  0.07704976  0.66544821     0.06700
C196        C  0.59858614  0.91630586  0.70299002     0.42400
C197        C  0.37644731  0.06317488  0.76857246    -0.06600
Co198      Co  0.49016994  0.00069698  0.72813775     0.73800
N199        N  0.60623826  0.07077221  0.74381642    -0.46800
C200        C  0.42615668  0.89065576  0.89186137     0.42700
N201        N  0.42375518  0.93320017  0.70126365    -0.46800
Co202      Co  0.58131527  0.99998535  0.79889516     0.73900
C203        C  0.61445945  0.92157907  0.84474042    -0.07100
C204        C  0.45746201  0.06895158  0.91658739    -0.06700
N205        N  0.41632391  0.95286456  0.76740825    -0.26200
N206        N  0.56177574  0.07469618  0.90382963    -0.47000
H207        H  0.48929199  0.90434368  0.93216024     0.06700
C208        C  0.55481441  0.93341921  0.69025582    -0.07100
Cl209      Cl  0.50091996  0.99767502  0.80699429    -0.50100
C210        C  0.59441063  0.08993633  0.70773030     0.42500
H211        H  0.35470673  0.92245351  0.78197648     0.06700
N212        N  0.60937957  0.93345687  0.74026919    -0.46800
C213        C  0.09065019  0.36176700  0.40574267     0.42300
N214        N  0.05360830  0.35832379  0.46418460     0.01200
C215        C  0.04742730  0.17944008  0.58283762    -0.06700
H216        H  0.03621411  0.15382199  0.42997462     0.06700
C217        C  0.87544044  0.24763001  0.43379483    -0.07000
Co218      Co  0.07543333  0.28229600  0.51219495     0.74200
N219        N  0.04001402  0.21089634  0.46359071    -0.26200
Co220      Co  0.98650399  0.21368122  0.50769784     0.74100
C221        C  0.88046605  0.20692606  0.41725904     0.42400
N222        N  0.92114497  0.34179538  0.46113642     0.00800
N223        N  0.93535100  0.21984307  0.46062312     0.00900
N224        N  0.10079736  0.22767675  0.58456994    -0.47100
H225        H  0.13088951  0.30446068  0.42250437     0.06700
N226        N  0.07210716  0.23847910  0.46564740     0.01200
N227        N  0.93455255  0.21859161  0.55244693     0.00900
C228        C  0.88070504  0.20402844  0.59533157     0.42500
N229        N  0.95514804  0.36727006  0.46194706    -0.25700
C230        C  0.10024732  0.32544162  0.59685713    -0.06600
N231        N  0.05798594  0.37975842  0.42863811    -0.46800
N232        N  0.91815239  0.18917291  0.57670641    -0.47000
C233        C  0.08460445  0.36109170  0.61961688     0.42300
N234        N  0.06880034  0.23691589  0.55711332     0.01200
N235        N  0.95314784  0.36650003  0.55510457    -0.25700
N236        N  0.08097551  0.32701914  0.46569013    -0.26200
N237        N  0.91935469  0.34078985  0.55453284     0.00800
H238        H  0.97398544  0.41220384  0.59998539     0.06700
H239        H  0.84533307  0.26434874  0.58175495     0.06700
N240        N  0.03679180  0.20932792  0.55512831    -0.26200
N241        N  0.90976595  0.25260408  0.46078857    -0.25800
N242        N  0.05115365  0.35773984  0.55882163     0.01200
C243        C  0.09797249  0.19555708  0.42098884     0.42600
C244        C  0.95301403  0.39076166  0.42708845    -0.07100
N245        N  0.90846080  0.25099549  0.55228539    -0.25800
H246        H  0.84681945  0.26768253  0.43106241     0.06700
N247        N  0.10654113  0.23037881  0.44112364    -0.47100
H248        H  0.97701833  0.41384431  0.41848287     0.06700
C249        C  0.91055895  0.37457388  0.61201502     0.42400
C250        C  0.10645627  0.32725264  0.43077031    -0.06600
Co251      Co  0.00346125  0.36378453  0.50992410     0.73800
N252        N  0.89579035  0.34603011  0.42673196    -0.46800
C253        C  0.09016772  0.19212482  0.60266851     0.42700
N254        N  0.05391179  0.37944594  0.59421549    -0.46800
Co255      Co  0.91418929  0.29692195  0.50724398     0.73900
C256        C  0.87427348  0.24479410  0.57875044    -0.07100
C257        C  0.05360097  0.18193078  0.43614011    -0.06700
N258        N  0.07760584  0.32577576  0.55985474    -0.26200
N259        N  0.91769072  0.19094016  0.43624232    -0.47000
H260        H  0.02898691  0.15150620  0.58659547     0.06700
C261        C  0.95016511  0.38940778  0.59001908    -0.07100
Cl262      Cl  0.99483165  0.28895534  0.50915326    -0.50100
C263        C  0.91356506  0.37649507  0.40365131     0.42500
H264        H  0.12306799  0.30203552  0.60760746     0.06700
N265        N  0.89329582  0.34429532  0.58826103    -0.46800
C266        C  0.09562000  0.80875356  0.41059374     0.42300
N267        N  0.04649976  0.79164258  0.45749103     0.01200
C268        C  0.05495408  0.61864436  0.58258564    -0.06700
H269        H  0.02535728  0.59694201  0.40828698     0.06700
C270        C  0.89040962  0.67306509  0.42374045    -0.07000
Co271      Co  0.07772010  0.71534088  0.50091485     0.74200
N272        N  0.04380448  0.64337208  0.45346505    -0.26200
Co273      Co  0.99687261  0.64122778  0.50256456     0.74100
C274        C  0.90913613  0.64045732  0.39833891     0.42400
N275        N  0.91270918  0.76303220  0.46324989     0.00800
N276        N  0.94518621  0.64419777  0.45752922     0.00900
N277        N  0.10504638  0.66980615  0.58132659    -0.47100
H278        H  0.13641731  0.75099563  0.42196555     0.06700
N279        N  0.07483225  0.67176381  0.45299606     0.01200
N280        N  0.94999288  0.64190774  0.55176076     0.00900
C281        C  0.91529820  0.63249350  0.61051638     0.42500
N282        N  0.94232240  0.79282465  0.46258363    -0.25700
C283        C  0.11266624  0.76565373  0.57535130    -0.06600
N284        N  0.05849985  0.82168501  0.43156926    -0.46800
N285        N  0.94953516  0.61886589  0.58645383    -0.47000
C286        C  0.10262115  0.80436224  0.59464647     0.42300
N287        N  0.07899013  0.67022929  0.54709149     0.01200
N288        N  0.94703183  0.79048241  0.55328814    -0.25700
N289        N  0.07534189  0.76122413  0.45612259    -0.26200
N290        N  0.91838520  0.75997732  0.55470893     0.00800
H291        H  0.94411337  0.85060451  0.58010112     0.06700
H292        H  0.86874835  0.68670149  0.59843751     0.06700
N293        N  0.04864931  0.64128751  0.54748540    -0.26200
N294        N  0.91516682  0.67348093  0.45937749    -0.25800
N295        N  0.05031182  0.78925173  0.54978972     0.01200
C296        C  0.08358663  0.64048275  0.39373582     0.42600
C297        C  0.92443572  0.82362264  0.43973691    -0.07100
N298        N  0.91916508  0.67052230  0.55265547    -0.25800
H299        H  0.86497690  0.69500420  0.41507344     0.06700
N300        N  0.09925313  0.67116401  0.41791745    -0.47100
H301        H  0.93818413  0.85386599  0.43779719     0.06700
C302        C  0.88879268  0.80433098  0.59625922     0.42400
C303        C  0.10654144  0.76892673  0.42706210    -0.06600
Co304      Co  0.99687076  0.79201487  0.50568111     0.73800
N305        N  0.87528474  0.77198828  0.44259468    -0.46800
C306        C  0.09219595  0.63795151  0.60523599     0.42700
N307        N  0.06398829  0.81794139  0.57642636    -0.46800
Co308      Co  0.91595123  0.71631917  0.50749067     0.73900
C309        C  0.89507597  0.66651205  0.58813277    -0.07100
C310        C  0.04698087  0.62171953  0.41746638    -0.06700
N311        N  0.07938679  0.75912996  0.54774281    -0.26200
N312        N  0.94308229  0.62401794  0.42119632    -0.47000
H313        H  0.03385104  0.59388249  0.59265278     0.06700
C314        C  0.93110429  0.82007229  0.57865410    -0.07100
Cl315      Cl  0.99681308  0.71643413  0.50406453    -0.50100
C316        C  0.87977695  0.80935890  0.42611458     0.42500
H317        H  0.14311019  0.74790510  0.57778078     0.06700
N318        N  0.88382309  0.76718906  0.57949578    -0.46800
C319        C  0.84795269  0.82800015  0.60647923    -0.20000
C320        C  0.84265341  0.84844823  0.64528677     0.36200
C321        C  0.79970970  0.86283689  0.65660757    -0.26000
C322        C  0.76209494  0.85708577  0.62986121     0.02600
C323        C  0.76815626  0.83808997  0.59001597     0.27400
C324        C  0.81094783  0.82444425  0.57879745    -0.25100
N325        N  0.88018320  0.85277970  0.67380036    -0.82500
H326        H  0.79519102  0.87763174  0.68698462     0.13200
C327        C  0.71690840  0.86922309  0.64539677     0.02600
N328        N  0.73176744  0.83045913  0.56082111    -0.81100
H329        H  0.81484345  0.80891153  0.54872640     0.18100
C330        C  0.69345003  0.90106550  0.62545431    -0.25900
C331        C  0.65176945  0.91453709  0.64106114     0.36100
C332        C  0.63367647  0.89614227  0.67768967    -0.20000
C333        C  0.65652081  0.86354491  0.69672548    -0.25200
C334        C  0.69764887  0.84960695  0.68072645     0.27500
H335        H  0.70828851  0.91599285  0.59823433     0.13200
N336        N  0.62937020  0.94844708  0.62158644    -0.82500
H337        H  0.64303751  0.85000099  0.72536712     0.18100
N338        N  0.72064762  0.81635156  0.70093224    -0.81100
H339        H  0.64789415  0.95926052  0.59582195     0.33700
H340        H  0.59904921  0.93793726  0.60896803     0.38200
H341        H  0.70230976  0.80558959  0.72684698     0.33700
H342        H  0.72213087  0.79267535  0.67900256     0.30400
H343        H  0.72908288  0.79907364  0.55721811     0.33700
H344        H  0.70099104  0.84011230  0.57256100     0.30400
H345        H  0.90376173  0.87125992  0.65878453     0.38200
H346        H  0.87044794  0.86796593  0.70138112     0.33700
C347        C  0.13925527  0.83048387  0.60990095    -0.20000
C348        C  0.17058450  0.84604915  0.58061269     0.36200
C349        C  0.21190267  0.86113751  0.59548483    -0.26000
C350        C  0.22230914  0.86075948  0.63898102     0.02600
C351        C  0.19041534  0.84640996  0.66836344     0.27400
C352        C  0.14906784  0.83133383  0.65347802    -0.25100
N353        N  0.16117681  0.84427587  0.53574705    -0.82500
H354        H  0.23645794  0.87240334  0.57312878     0.13200
C355        C  0.26664005  0.87557683  0.65378469     0.02600
N356        N  0.20079009  0.84616814  0.71306511    -0.81100
H357        H  0.12545902  0.81824507  0.67568086     0.18100
C358        C  0.26920115  0.91400696  0.67211837    -0.25900
C359        C  0.30931959  0.92791260  0.69052060     0.36100
C360        C  0.34766042  0.90262842  0.69091636    -0.20000
C361        C  0.34573324  0.86479417  0.67084878    -0.25200
C362        C  0.30535497  0.85092911  0.65223875     0.27500
H363        H  0.23939031  0.93281680  0.67292951     0.13200
N364        N  0.31096004  0.96722366  0.70999314    -0.82500
H365        H  0.37509551  0.84540913  0.67135459     0.18100
N366        N  0.30311767  0.81164917  0.63277988    -0.81100
H367        H  0.27981914  0.98168552  0.70744673     0.33700
H368        H  0.33376447  0.98483643  0.69290203     0.38200
H369        H  0.33444191  0.79738039  0.63420643     0.33700
H370        H  0.28119078  0.79386126  0.65069215     0.30400
H371        H  0.17377587  0.83478861  0.73042848     0.33700
H372        H  0.22752851  0.82610187  0.71793438     0.30400
H373        H  0.13350690  0.86296204  0.52965966     0.38200
H374        H  0.18791468  0.85614502  0.51836552     0.33700
C375        C  0.84250411  0.17893272  0.60914413    -0.20000
C376        C  0.81014673  0.16585249  0.57930414     0.36200
C377        C  0.76908729  0.15003395  0.59361825    -0.26000
C378        C  0.75965338  0.14719133  0.63720744     0.02600
C379        C  0.79368180  0.15774827  0.66708653     0.27400
C380        C  0.83433578  0.17404364  0.65259548    -0.25100
N381        N  0.81830353  0.17068118  0.53458818    -0.82500
H382        H  0.74355939  0.14144979  0.57066724     0.13200
C383        C  0.71360392  0.13490173  0.65035965     0.02600
N384        N  0.78858124  0.15200082  0.71212956    -0.81100
H385        H  0.85926991  0.18397962  0.67553378     0.18100
C386        C  0.69670385  0.09693714  0.63830545    -0.25900
C387        C  0.65494102  0.08312300  0.65333411     0.36100
C388        C  0.62960684  0.10785500  0.68076118    -0.20000
C389        C  0.64522575  0.14673732  0.69061128    -0.25200
C390        C  0.68652508  0.16068898  0.67503375     0.27500
H391        H  0.71701675  0.07737503  0.61861136     0.13200
N392        N  0.63957136  0.04306255  0.64319828    -0.82500
H393        H  0.62623875  0.16569970  0.71206409     0.18100
N394        N  0.70142002  0.20076558  0.68511298    -0.81100
H395        H  0.66269137  0.02850227  0.62361715     0.33700
H396        H  0.60997481  0.04603387  0.62541851     0.38200
H397        H  0.67742368  0.22122784  0.67358953     0.33700
H398        H  0.70265389  0.20347438  0.71820806     0.30400
H399        H  0.78721578  0.18061046  0.72625051     0.33700
H400        H  0.75899008  0.13680240  0.71952279     0.30400
H401        H  0.84550756  0.15213061  0.52691778     0.38200
H402        H  0.79090367  0.16031440  0.51680444     0.33700
C403        C  0.12510484  0.16914511  0.62639150    -0.20000
C404        C  0.13671696  0.12878557  0.61649706     0.36200
C405        C  0.17774532  0.11275438  0.63178058    -0.26000
C406        C  0.20737181  0.13637093  0.65626827     0.02600
C407        C  0.19469319  0.17589397  0.66780923     0.27400
C408        C  0.15377331  0.19175003  0.65288076    -0.25100
N409        N  0.10852088  0.10512718  0.58896073    -0.82500
H410        H  0.18734800  0.08211837  0.62356950     0.13200
C411        C  0.25117667  0.11926904  0.67067280     0.02600
N412        N  0.22394763  0.20007806  0.69390263    -0.81100
H413        H  0.14507113  0.22280648  0.66036905     0.18100
C414        C  0.29171775  0.13578107  0.65575483    -0.25900
C415        C  0.33370652  0.12197127  0.67134499     0.36100
C416        C  0.33497105  0.09159729  0.70294937    -0.20000
C417        C  0.29417645  0.07427143  0.71640560    -0.25200
C418        C  0.25254703  0.08782805  0.70085385     0.27500
H419        H  0.29047237  0.15990692  0.63233877     0.13200
N420        N  0.37468845  0.13981059  0.65655012    -0.82500
H421        H  0.29446973  0.05034973  0.73998419     0.18100
N422        N  0.21153680  0.07050759  0.71646438    -0.81100
H423        H  0.36781683  0.16247647  0.63412156     0.33700
H424        H  0.39254869  0.11729539  0.64061556     0.38200
H425        H  0.21831241  0.04741912  0.73842894     0.33700
H426        H  0.19440744  0.09313953  0.73295737     0.30400
H427        H  0.20999671  0.22872447  0.69901376     0.33700
H428        H  0.22632763  0.18603124  0.72365935     0.30400
H429        H  0.07919397  0.09865490  0.60567198     0.38200
H430        H  0.12352765  0.07719921  0.58249329     0.33700
C431        C  0.83971813  0.83369255  0.41372603    -0.20000
C432        C  0.83800131  0.85876860  0.37709826     0.36200
C433        C  0.79675692  0.87612579  0.36458989    -0.26000
C434        C  0.75722281  0.86884809  0.38747330     0.02600
C435        C  0.75913330  0.84516357  0.42463271     0.27400
C436        C  0.80026535  0.82806240  0.43749343    -0.25100
N437        N  0.87615745  0.86504993  0.35016524    -0.82500
H438        H  0.79510332  0.89385389  0.33556036     0.13200
C439        C  0.71315064  0.88112745  0.36911151     0.02600
N440        N  0.71874935  0.83678362  0.44779217    -0.81100
H441        H  0.80120756  0.80906176  0.46564895     0.18100
C442        C  0.69373547  0.85556283  0.33866605    -0.25900
C443        C  0.65265325  0.86499051  0.31909736     0.36100
C444        C  0.63019215  0.90125292  0.32995003    -0.20000
C445        C  0.64836021  0.92587450  0.36210141    -0.25200
C446        C  0.68979788  0.91651978  0.38159686     0.27500
H447        H  0.71104384  0.82804487  0.32960660     0.13200
N448        N  0.63528342  0.83742441  0.28773283    -0.82500
H449        H  0.63153271  0.95379418  0.37042432     0.18100
N450        N  0.70734145  0.94393958  0.41300497    -0.81100
H451        H  0.63015109  0.80955453  0.30279995     0.33700
H452        H  0.60384041  0.84655070  0.27642821     0.38200
H453        H  0.71321431  0.97169573  0.39794572     0.33700
H454        H  0.73822623  0.93412035  0.42502093     0.30400
H455        H  0.72543306  0.81737861  0.47337131     0.33700
H456        H  0.70747963  0.86407369  0.46069100     0.30400
H457        H  0.90423519  0.84894719  0.36072170     0.38200
H458        H  0.88443418  0.89576200  0.35155258     0.33700
C459        C  0.33938104  0.90884340  0.31351010    -0.20000
C460        C  0.33581601  0.87182971  0.33552138     0.36200
C461        C  0.29341606  0.85918267  0.35025901    -0.26000
C462        C  0.25480525  0.88311169  0.34372499     0.02600
C463        C  0.25891468  0.92099452  0.32344455     0.27400
C464        C  0.30110923  0.93346997  0.30869583    -0.25100
N465        N  0.37462914  0.84645657  0.34097667    -0.82500
H466        H  0.29020006  0.83020472  0.36621455     0.13200
C467        C  0.21014277  0.86738548  0.35688622     0.02600
N468        N  0.21999053  0.94601336  0.31663791    -0.81100
H469        H  0.30389021  0.96208201  0.29191780     0.18100
C470        C  0.18602569  0.88695758  0.38911657    -0.25900
C471        C  0.14578293  0.87041558  0.40501561     0.36100
C472        C  0.12934139  0.83374553  0.38802594    -0.20000
C473        C  0.15222972  0.81562279  0.35410396    -0.25200
C474        C  0.19222382  0.83214870  0.33820002     0.27500
H475        H  0.19969329  0.91426654  0.40311959     0.13200
N476        N  0.12354258  0.88906339  0.44028622    -0.82500
H477        H  0.13984040  0.78730777  0.34123996     0.18100
N478        N  0.21541823  0.81272832  0.30388414    -0.81100
H479        H  0.14109329  0.91476828  0.45030608     0.33700
H480        H  0.09223814  0.89915728  0.42944376     0.38200
H481        H  0.19810299  0.78687021  0.29395328     0.33700
H482        H  0.21535163  0.83278302  0.27807783     0.30400
H483        H  0.22880707  0.97306591  0.30145091     0.33700
H484        H  0.19851055  0.93062942  0.29584411     0.30400
H485        H  0.39724860  0.86189163  0.36061110     0.38200
H486        H  0.36608978  0.81980337  0.35704300     0.33700
C487        C  0.63234246  0.10182930  0.32847317    -0.20000
C488        C  0.66919543  0.07614021  0.33735374     0.36200
C489        C  0.70861639  0.09229498  0.35533610    -0.26000
C490        C  0.71199878  0.13364671  0.36503371     0.02600
C491        C  0.67381752  0.15870335  0.35913406     0.27400
C492        C  0.63443948  0.14256160  0.34059383    -0.25100
N493        N  0.66711195  0.03404788  0.32596063    -0.82500
H494        H  0.73761237  0.07289570  0.35985562     0.13200
C495        C  0.75661499  0.15067715  0.37799888     0.02600
N496        N  0.67564586  0.20066789  0.37097039    -0.81100
H497        H  0.60620361  0.16224623  0.33359469     0.18100
C498        C  0.77512370  0.18253128  0.35415005    -0.25900
C499        C  0.81698340  0.19954098  0.36496467     0.36100
C500        C  0.84161637  0.18392716  0.39985475    -0.20000
C501        C  0.82414798  0.15095225  0.42265625    -0.25200
C502        C  0.78158626  0.13460601  0.41256732     0.27500
H503        H  0.75664212  0.19436108  0.32703274     0.13200
N504        N  0.83438483  0.23315751  0.34104920    -0.82500
H505        H  0.84263565  0.13937827  0.44983656     0.18100
N506        N  0.76299602  0.10268110  0.43813352    -0.81100
H507        H  0.81217002  0.24135141  0.31660929     0.33700
H508        H  0.86393620  0.22350051  0.32647944     0.38200
H509        H  0.78532537  0.09445129  0.46244323     0.33700
H510        H  0.73435077  0.11415720  0.45290939     0.30400
H511        H  0.64501699  0.21494127  0.36440936     0.33700
H512        H  0.68026040  0.20183965  0.40392175     0.30400
H513        H  0.64166020  0.02084309  0.34399113     0.38200
H514        H  0.69692704  0.01921599  0.33425731     0.33700
C515        C  0.13453879  0.17506366  0.39758903    -0.20000
C516        C  0.14910948  0.13530057  0.40697827     0.36200
C517        C  0.19039872  0.12143497  0.39044673    -0.26000
C518        C  0.21753777  0.14681428  0.36539601     0.02600
C519        C  0.20288850  0.18658177  0.35642027     0.27400
C520        C  0.16161581  0.19994816  0.37218433    -0.25100
N521        N  0.12352245  0.11008951  0.43509624    -0.82500
H522        H  0.20160237  0.09086436  0.39730189     0.13200
C523        C  0.26038974  0.13162404  0.34702453     0.02600
N524        N  0.23068742  0.21371576  0.33228249    -0.81100
H525        H  0.15146582  0.23094777  0.36632337     0.18100
C526        C  0.26600578  0.13421885  0.30294478    -0.25900
C527        C  0.30608093  0.12243583  0.28372622     0.36100
C528        C  0.34156645  0.10633097  0.30860827    -0.20000
C529        C  0.33633024  0.10392136  0.35293571    -0.25200
C530        C  0.29608918  0.11662798  0.37245511     0.27500
H531        H  0.23894414  0.14574287  0.28310650     0.13200
N532        N  0.31045347  0.12692335  0.23861481    -0.82500
H533        H  0.36311055  0.09128060  0.37228056     0.18100
N534        N  0.29138100  0.11440748  0.41783371    -0.81100
H535        H  0.30523797  0.15739390  0.23094671     0.33700
H536        H  0.28508209  0.11002944  0.22395226     0.38200
H537        H  0.32049120  0.10253538  0.43184361     0.33700
H538        H  0.28805424  0.14400685  0.42909773     0.30400
H539        H  0.21505667  0.24186343  0.32839997     0.33700
H540        H  0.25999485  0.21879725  0.34993923     0.30400
H541        H  0.09363058  0.10277581  0.41939040     0.38200
H542        H  0.14023528  0.08270853  0.44072093     0.33700
C543        C  0.61524123  0.64539339  0.08871371    -0.20000
C544        C  0.57343478  0.66553192  0.08993532     0.36200
C545        C  0.57215181  0.70771414  0.09361709    -0.26000
C546        C  0.61182464  0.73047902  0.09600062     0.02600
C547        C  0.65367313  0.71053246  0.09545950     0.27400
C548        C  0.65493937  0.66812903  0.09214858    -0.25100
N549        N  0.53181804  0.64393488  0.08920809    -0.82500
H550        H  0.53990368  0.72288028  0.09491677     0.13200
C551        C  0.60882484  0.77510064  0.10009980     0.02600
N552        N  0.69461277  0.73345950  0.09773662    -0.81100
H553        H  0.68713015  0.65285781  0.09116407     0.18100
C554        C  0.62624845  0.79373719  0.13658138    -0.25900
C555        C  0.62156820  0.83562767  0.14304624     0.36100
C556        C  0.59839507  0.85937084  0.11235046    -0.20000
C557        C  0.58279893  0.84070042  0.07493714    -0.25200
C558        C  0.58760842  0.79884845  0.06857435     0.27500
H559        H  0.64272946  0.77526947  0.16059430     0.13200
N560        N  0.63910678  0.85361190  0.18124422    -0.82500
H561        H  0.56630139  0.85864399  0.05061555     0.18100
N562        N  0.57070562  0.78026035  0.03042601    -0.81100
H563        H  0.65344705  0.83153922  0.20101397     0.33700
H564        H  0.66528474  0.87286779  0.17243884     0.38200
H565        H  0.55589174  0.80194080  0.01049080     0.33700
H566        H  0.59814449  0.76852433  0.01398280     0.30400
H567        H  0.72247002  0.71419741  0.09720303     0.33700
H568        H  0.69630754  0.75141814  0.07034132     0.30400
H569        H  0.53247832  0.62214925  0.11341163     0.38200
H570        H  0.52816245  0.62941088  0.06002990     0.33700
C571        C  0.61078515  0.35878933  0.09730353    -0.20000
C572        C  0.63671804  0.33869857  0.12891188     0.36200
C573        C  0.63283306  0.29651616  0.13369281    -0.26000
C574        C  0.60306438  0.27429356  0.10830449     0.02600
C575        C  0.57542019  0.29449320  0.07873149     0.27400
C576        C  0.57934811  0.33641324  0.07354444    -0.25100
N577        N  0.66743754  0.36083756  0.15550196    -0.82500
H578        H  0.65329622  0.28076989  0.15709589     0.13200
C579        C  0.60142276  0.22980359  0.11259794     0.02600
N580        N  0.54432130  0.27231393  0.05287763    -0.81100
H581        H  0.55843620  0.35100355  0.04978283     0.18100
C582        C  0.56223158  0.21179291  0.12788953    -0.25900
C583        C  0.55864022  0.16968896  0.13132785     0.36100
C584        C  0.59469205  0.14520642  0.11814982    -0.20000
C585        C  0.63449352  0.16302639  0.10394975    -0.25200
C586        C  0.63825289  0.20540042  0.10105456     0.27500
H587        H  0.53450576  0.23065256  0.13743718     0.13200
N588        N  0.51866254  0.15163533  0.14835292    -0.82500
H589        H  0.66222536  0.14388852  0.09449529     0.18100
N590        N  0.67894445  0.22376566  0.08609139    -0.81100
H591        H  0.49552390  0.17396396  0.15678913     0.33700
H592        H  0.52757528  0.13660738  0.17649929     0.38200
H593        H  0.70267067  0.20157710  0.07874677     0.33700
H594        H  0.67147290  0.23901913  0.05771867     0.30400
H595        H  0.51228760  0.28421777  0.05790739     0.33700
H596        H  0.55237925  0.27752988  0.02106817     0.30400
H597        H  0.64838361  0.38008500  0.17460160     0.38200
H598        H  0.68465258  0.34130073  0.17615142     0.33700
C599        C  0.61094108  0.64257556  0.90734243    -0.20000
C600        C  0.58473382  0.66570157  0.93584979     0.36200
C601        C  0.58176246  0.70771351  0.93015073    -0.26000
C602        C  0.60399990  0.72683339  0.89672644     0.02600
C603        C  0.62922765  0.70410822  0.86776026     0.27400
C604        C  0.63199130  0.66210435  0.87305520    -0.25100
N605        N  0.56243643  0.64702912  0.97118702    -0.82500
H606        H  0.56262333  0.72581186  0.95223580     0.13200
C607        C  0.60197517  0.77106656  0.89337052     0.02600
N608        N  0.65343603  0.72400913  0.83425765    -0.81100
H609        H  0.65164546  0.64483585  0.85071044     0.18100
C610        C  0.62968059  0.79386456  0.92039982    -0.25900
C611        C  0.63034388  0.83623440  0.91768965     0.36100
C612        C  0.60345001  0.85550726  0.88687578    -0.20000
C613        C  0.57519214  0.83281341  0.86037294    -0.25200
C614        C  0.57382325  0.79068523  0.86338045     0.27500
H615        H  0.65086901  0.77846675  0.94349193     0.13200
N616        N  0.65846067  0.85968736  0.94554602    -0.82500
H617        H  0.55358959  0.84807188  0.83750142     0.18100
N618        N  0.54307050  0.76914995  0.83620840    -0.81100
H619        H  0.67662063  0.84066790  0.96602043     0.33700
H620        H  0.63746600  0.87711399  0.96472205     0.38200
H621        H  0.55322137  0.77369243  0.80480210     0.33700
H622        H  0.54389730  0.73799443  0.84176976     0.30400
H623        H  0.67201125  0.70302739  0.81680896     0.33700
H624        H  0.62994755  0.73654867  0.81320195     0.30400
H625        H  0.54655335  0.66878578  0.98993876     0.38200
H626        H  0.53702165  0.62856543  0.95898036     0.33700
C627        C  0.62231964  0.35433761  0.91575880    -0.20000
C628        C  0.58300124  0.33502148  0.93026497     0.36200
C629        C  0.58075406  0.29253676  0.93033833    -0.26000
C630        C  0.61631998  0.26915299  0.91498888     0.02600
C631        C  0.65546484  0.28828010  0.90028971     0.27400
C632        C  0.65816007  0.33064843  0.90088774    -0.23300
N633        N  0.54520195  0.35852669  0.94407407    -0.82500
H634        H  0.55057259  0.27768059  0.94105636     0.13200
C635        C  0.61007639  0.22520453  0.90893656     0.02600
N636        N  0.69213110  0.26442085  0.88453428    -0.81100
H637        H  0.68876118  0.34493198  0.89024448     0.18100
C638        C  0.60850371  0.21064186  0.86728997    -0.25900
C639        C  0.60248658  0.16949785  0.85910175     0.36100
C640        C  0.59866535  0.14187539  0.89331022    -0.20000
C641        C  0.59891055  0.15658818  0.93515003    -0.25200
C642        C  0.60479153  0.19812737  0.94321961     0.27500
H643        H  0.61139544  0.23155834  0.84079878     0.13200
N644        N  0.59867632  0.15633337  0.81587505    -0.82500
H645        H  0.59514334  0.13577243  0.96160090     0.18100
N646        N  0.60559375  0.21263318  0.98604299    -0.81100
H647        H  0.62801927  0.16455891  0.79998583     0.33700
H648        H  0.57179958  0.17170434  0.80160685     0.38200
H649        H  0.63138994  0.19755298  0.00228331     0.33700
H650        H  0.57527446  0.20453536  0.00028842     0.30400
H651        H  0.71831053  0.28306318  0.87442129     0.33700
H652        H  0.70467523  0.24717614  0.90989581     0.30400
H653        H  0.53314970  0.37474837  0.91771494     0.38200
H654        H  0.51910238  0.33961081  0.95371423     0.33700
C655        C  0.83787320  0.60532010  0.87095049    -0.20000
C656        C  0.81967663  0.63502916  0.84361848     0.36200
C657        C  0.83817234  0.64064475  0.80312647    -0.26000
C658        C  0.87314718  0.61581286  0.78861845     0.02600
C659        C  0.89345134  0.58798986  0.81712246     0.27400
C660        C  0.87589025  0.58342561  0.85833562    -0.25100
N661        N  0.78061606  0.65750403  0.85618764    -0.82500
H662        H  0.82344284  0.66284908  0.78174476     0.13200
C663        C  0.88490097  0.61691368  0.74261450     0.02600
N664        N  0.93014050  0.56301880  0.80345839    -0.81100
H665        H  0.88933970  0.56012707  0.87917429     0.18100
C666        C  0.92965603  0.62240863  0.73005781    -0.25900
C667        C  0.94115931  0.62471657  0.68675015     0.36100
C668        C  0.90698873  0.62250276  0.65553999    -0.20000
C669        C  0.86250236  0.61647026  0.66801781    -0.25200
C670        C  0.85115316  0.61280384  0.71106523     0.27500
H671        H  0.95556136  0.62572142  0.75412179     0.13200
N672        N  0.98692291  0.63141905  0.67455012    -0.82500
H673        H  0.83636480  0.61502639  0.64392810     0.18100
N674        N  0.80538048  0.60518971  0.72289499    -0.81100
H675        H  0.00742937  0.63479922  0.70141416     0.33700
H676        H  0.99784977  0.60510656  0.65945887     0.38200
H677        H  0.78471693  0.60341439  0.69595379     0.33700
H678        H  0.80434505  0.57678304  0.73761984     0.30400
H679        H  0.94048400  0.54349471  0.82788238     0.33700
H680        H  0.91853645  0.54485290  0.77857816     0.30400
H681        H  0.78966529  0.67522542  0.88233939     0.38200
H682        H  0.77057751  0.67750106  0.83207048     0.33700
C683        C  0.90454465  0.63629823  0.35185110    -0.20000
C684        C  0.90701246  0.67047154  0.32482028     0.36200
C685        C  0.89795251  0.66600999  0.28120220    -0.26000
C686        C  0.88740247  0.62802394  0.26408515     0.02600
C687        C  0.88809005  0.59343251  0.29067993     0.27400
C688        C  0.89696360  0.59794419  0.33439799    -0.25100
N689        N  0.91882642  0.70947956  0.34174067    -0.82500
H690        H  0.89825800  0.69232509  0.26052357     0.13200
C691        C  0.87156777  0.62523770  0.21934624     0.02600
N692        N  0.87841706  0.55410331  0.27340222    -0.81100
H693        H  0.89618519  0.57172048  0.35519483     0.18100
C694        C  0.89491925  0.60131679  0.19005035    -0.25900
C695        C  0.87637173  0.59265318  0.14973717     0.36100
C696        C  0.83312888  0.60743259  0.13927316    -0.20000
C697        C  0.81176461  0.63411867  0.16731912    -0.25200
C698        C  0.83066036  0.64324453  0.20704023     0.27500
H699        H  0.92681752  0.58810325  0.19936609     0.13200
N700        N  0.89995015  0.56683725  0.12078132    -0.82500
H701        H  0.77879800  0.64600830  0.15943997     0.18100
N702        N  0.80683506  0.66879976  0.23590530    -0.81100
H703        H  0.93038341  0.55720671  0.13414671     0.33700
H704        H  0.90803590  0.58427086  0.09412430     0.38200
H705        H  0.80197390  0.69691565  0.22114324     0.33700
H706        H  0.77532305  0.65598834  0.24131014     0.30400
H707        H  0.88067061  0.53186150  0.29706675     0.33700
H708        H  0.84510037  0.55428079  0.26276763     0.30400
H709        H  0.95158780  0.70745387  0.35372263     0.38200
H710        H  0.91938632  0.73131899  0.31761158     0.33700
C711        C  0.84039704  0.39966467  0.87400174    -0.20000
C712        C  0.82719897  0.36514741  0.85094454     0.36200
C713        C  0.84454550  0.35882367  0.81006602    -0.26000
C714        C  0.87339845  0.38726924  0.79135473     0.02600
C715        C  0.88739338  0.42114005  0.81510320     0.27400
C716        C  0.87174177  0.42648188  0.85660326    -0.25100
N717        N  0.79405002  0.33818629  0.86809456    -0.82500
H718        H  0.83354357  0.33288469  0.79173865     0.13200
C719        C  0.88390390  0.38383306  0.74545715     0.02600
N720        N  0.91396760  0.45215715  0.79581293    -0.81100
H721        H  0.88045290  0.45398179  0.87348832     0.18100
C722        C  0.84821853  0.38133760  0.71613881    -0.25900
C723        C  0.85614358  0.37916767  0.67226079     0.36100
C724        C  0.90060981  0.37984312  0.65747757    -0.20000
C725        C  0.93632865  0.38276551  0.68667100    -0.25200
C726        C  0.92847129  0.38404490  0.73060884     0.27500
H727        H  0.81399627  0.38150995  0.72758153     0.13200
N728        N  0.81929692  0.37658889  0.64264477    -0.82500
H729        H  0.97057428  0.38246840  0.67530505     0.18100
N730        N  0.96547902  0.38474963  0.76017678    -0.81100
H731        H  0.78870969  0.37620104  0.65872878     0.33700
H732        H  0.81945587  0.40297237  0.62415669     0.38200
H733        H  0.99606161  0.38490379  0.74405688     0.33700
H734        H  0.96452091  0.35786034  0.77778360     0.30400
H735        H  0.89534493  0.47897870  0.79637227     0.33700
H736        H  0.94273987  0.45631326  0.81447560     0.30400
H737        H  0.80770291  0.32492186  0.89549194     0.38200
H738        H  0.78749747  0.31460846  0.84682831     0.33700
C739        C  0.83797890  0.40885769  0.14186228    -0.20000
C740        C  0.85582353  0.44190147  0.16474397     0.36200
C741        C  0.87225697  0.43578883  0.20617203    -0.26000
C742        C  0.87089437  0.39738938  0.22520928     0.02600
C743        C  0.85506968  0.36395730  0.20155857     0.27400
C744        C  0.83845461  0.37010998  0.16006748    -0.25100
N745        N  0.85361262  0.48208801  0.14712878    -0.82500
H746        H  0.88388684  0.46147137  0.22455567     0.13200
C747        C  0.88232772  0.39338499  0.27101985     0.02600
N748        N  0.85447058  0.32424519  0.22042123    -0.81100
H749        H  0.82366248  0.34507802  0.14275155     0.18100
C750        C  0.84969148  0.37855138  0.29893631    -0.25900
C751        C  0.85888481  0.37396446  0.34240337     0.36100
C752        C  0.90139828  0.38478205  0.35870396    -0.20000
C753        C  0.93357694  0.40107372  0.33098975    -0.25200
C754        C  0.92458063  0.40519460  0.28721182     0.27500
H755        H  0.81677309  0.37039544  0.28686575     0.13200
N756        N  0.82478966  0.35840901  0.36987153    -0.82500
H757        H  0.96643223  0.40923884  0.34306188     0.18100
N758        N  0.95842754  0.42046243  0.25902654    -0.81100
H759        H  0.79677100  0.37739182  0.36749522     0.33700
H760        H  0.81552145  0.32973372  0.35889029     0.38200
H761        H  0.98762348  0.42776730  0.27593678     0.33700
H762        H  0.96696364  0.39710371  0.23820787     0.30400
H763        H  0.84145807  0.30306276  0.19902077     0.33700
H764        H  0.88774070  0.31582914  0.22649874     0.30400
H765        H  0.87519597  0.48301812  0.12108938     0.38200
H766        H  0.86565481  0.50326466  0.16901984     0.33700
C767        C  0.40185640  0.63120054  0.89892323    -0.20000
C768        C  0.44366933  0.64905900  0.89050862     0.36200
C769        C  0.44645573  0.69136169  0.88645677    -0.26000
C770        C  0.40833958  0.71598357  0.89173981     0.02600
C771        C  0.36609733  0.69765354  0.89851753     0.27400
C772        C  0.36332760  0.65539519  0.90145430    -0.25100
N773        N  0.48301670  0.62419544  0.88653188    -0.82500
H774        H  0.47863657  0.70526781  0.88013066     0.13200
C775        C  0.41331146  0.76077713  0.89219080     0.02600
N776        N  0.32638424  0.72194327  0.90370189    -0.81100
H777        H  0.33120606  0.64138559  0.90796192     0.18100
C778        C  0.38410248  0.78467918  0.86755691    -0.25900
C779        C  0.38523343  0.82706271  0.86965787     0.36100
C780        C  0.41902280  0.84622671  0.89419759    -0.20000
C781        C  0.44851798  0.82224742  0.91860937    -0.25200
C782        C  0.44537663  0.77983752  0.91862956     0.27500
H783        H  0.35965886  0.77015338  0.84704221     0.13200
N784        N  0.35210764  0.85049026  0.84692782    -0.82500
H785        H  0.47428440  0.83638548  0.93781652     0.18100
N786        N  0.47454537  0.75612887  0.94551668    -0.81100
H787        H  0.33019698  0.83167841  0.83005381     0.33700
H788        H  0.33263146  0.86547659  0.86954526     0.38200
H789        H  0.49609533  0.77481366  0.96290405     0.33700
H790        H  0.45460484  0.74092726  0.96762752     0.30400
H791        H  0.29851414  0.70371998  0.90980525     0.33700
H792        H  0.33084011  0.74016022  0.93047798     0.30400
H793        H  0.47824830  0.60540946  0.86021098     0.38200
H794        H  0.51103078  0.64209541  0.87984548     0.33700
C795        C  0.39562957  0.34858496  0.92727024    -0.20000
C796        C  0.41230777  0.32273208  0.95961095     0.36200
C797        C  0.41486897  0.28114205  0.95241441    -0.26000
C798        C  0.40167635  0.26455755  0.91342221     0.02600
C799        C  0.38564172  0.29005546  0.88069635     0.27400
C800        C  0.38240097  0.33190610  0.88810989    -0.25100
N801        N  0.42495846  0.33794089  0.00050235    -0.82500
H802        H  0.42687721  0.26149634  0.97776546     0.13200
C803        C  0.40596693  0.22038926  0.90779304     0.02600
N804        N  0.37301589  0.27339401  0.84019235    -0.81100
H805        H  0.36959979  0.35161127  0.86320709     0.18100
C806        C  0.36792412  0.19689171  0.89867749    -0.25900
C807        C  0.37093339  0.15443781  0.89677667     0.36100
C808        C  0.41261247  0.13553589  0.90485612    -0.20000
C809        C  0.45058915  0.15932450  0.91335931    -0.25200
C810        C  0.44776057  0.20149416  0.91427373     0.27500
H811        H  0.33580373  0.21166637  0.89382707     0.13200
N812        N  0.33197134  0.13051873  0.88695425    -0.82500
H813        H  0.48308676  0.14525377  0.91798344     0.18100
N814        N  0.48728142  0.22542245  0.92139176    -0.81100
H815        H  0.30412120  0.14914387  0.88149257     0.33700
H816        H  0.32469363  0.11296318  0.91376008     0.38200
H817        H  0.51516653  0.20676208  0.92610064     0.33700
H818        H  0.49321612  0.24203633  0.89364005     0.30400
H819        H  0.36183938  0.29627379  0.81962931     0.33700
H820        H  0.40186990  0.26108550  0.82657566     0.30400
H821        H  0.45838555  0.32994471  0.00637444     0.38200
H822        H  0.40526505  0.32337340  0.02318633     0.33700
C823        C  0.40958028  0.85979718  0.10087173    -0.20000
C824        C  0.43182710  0.84263485  0.06576330     0.36200
C825        C  0.43373771  0.80052011  0.06150803    -0.26000
C826        C  0.41302366  0.77519993  0.09124797     0.02600
C827        C  0.38888395  0.79208820  0.12522171     0.27400
C828        C  0.38764412  0.83423904  0.12985861    -0.25100
N829        N  0.45234224  0.86777521  0.03421896    -0.82500
H830        H  0.45177725  0.78751567  0.03504545     0.13200
C831        C  0.41585733  0.73097278  0.08612394     0.02600
N832        N  0.36586298  0.76629842  0.15487599    -0.81100
H833        H  0.37020325  0.84683936  0.15679061     0.18100
C834        C  0.43369771  0.70744298  0.11940271    -0.25900
C835        C  0.43175702  0.66522052  0.11807958     0.36100
C836        C  0.41350383  0.64640349  0.08170030    -0.20000
C837        C  0.39845936  0.66980264  0.04723072    -0.25200
C838        C  0.39825752  0.71210096  0.04958085     0.27500
H839        H  0.44767349  0.72206520  0.14730175     0.13200
N840        N  0.44830822  0.64263836  0.15409692    -0.82500
H841        H  0.38378321  0.65497789  0.01973903     0.18100
N842        N  0.37804091  0.73583403  0.01618920    -0.81100
H843        H  0.42731534  0.64880364  0.17975658     0.33700
H844        H  0.44700515  0.61144356  0.14888223     0.38200
H845        H  0.36656205  0.71697383  0.99187481     0.33700
H846        H  0.34971385  0.75006026  0.02874802     0.30400
H847        H  0.34995109  0.78348927  0.17821425     0.33700
H848        H  0.34053749  0.75116159  0.13813942     0.30400
H849        H  0.48618091  0.85972747  0.03219453     0.38200
H850        H  0.43714923  0.86147683  0.00493713     0.33700
C851        C  0.40978774  0.15079863  0.11167666    -0.20000
C852        C  0.43420422  0.17342378  0.08129444     0.36200
C853        C  0.43321227  0.21607354  0.08284862    -0.26000
C854        C  0.40778380  0.23631230  0.11355522     0.02600
C855        C  0.38302928  0.21400684  0.14330667     0.27400
C856        C  0.38417319  0.17167439  0.14205671    -0.25100
N857        N  0.45970241  0.15323387  0.04901482    -0.82500
H858        H  0.45126150  0.23361012  0.05937711     0.13200
C859        C  0.40330564  0.28081404  0.11194921     0.02600
N860        N  0.35652053  0.23467504  0.17454618    -0.81100
H861        H  0.36530858  0.15529471  0.16567419     0.18100
C862        C  0.36212935  0.29716561  0.09872188    -0.25900
C863        C  0.35581424  0.33914342  0.09625790     0.36100
C864        C  0.39152144  0.36509208  0.10748094    -0.20000
C865        C  0.43255556  0.34884613  0.12125045    -0.25200
C866        C  0.43851009  0.30672891  0.12445907     0.27500
H867        H  0.33513323  0.27697181  0.08951721     0.13200
N868        N  0.31396751  0.35545927  0.08084903    -0.82500
H869        H  0.45979962  0.36907085  0.12969034     0.18100
N870        N  0.47971877  0.29021143  0.14083069    -0.81100
H871        H  0.29118890  0.33220286  0.07426774     0.33700
H872        H  0.32027155  0.37001040  0.05192097     0.38200
H873        H  0.50227072  0.31337641  0.14844323     0.33700
H874        H  0.47238533  0.27524207  0.16928928     0.30400
H875        H  0.33968866  0.21396386  0.19390139     0.33700
H876        H  0.37852602  0.25064738  0.19432159     0.30400
H877        H  0.47617568  0.17429308  0.02974877     0.38200
H878        H  0.43698700  0.13790870  0.02935268     0.33700
C879        C  0.18517721  0.60408749  0.86157316    -0.20000
C880        C  0.20651750  0.62991565  0.83216677     0.36200
C881        C  0.18578380  0.63826406  0.79293307    -0.26000
C882        C  0.14390452  0.62158304  0.78238657     0.02600
C883        C  0.12121289  0.59772323  0.81283939     0.27400
C884        C  0.14208585  0.58928595  0.85228412    -0.25100
N885        N  0.25013631  0.64623021  0.84169465    -0.82500
H886        H  0.20344469  0.65632184  0.76959985     0.13200
C887        C  0.12670702  0.62656296  0.73805526     0.02600
N888        N  0.07783315  0.58107788  0.80298881    -0.81100
H889        H  0.12593104  0.56905889  0.87463206     0.18100
C890        C  0.11759736  0.59190995  0.71364196    -0.25900
C891        C  0.10629852  0.59503056  0.67033526     0.36100
C892        C  0.10390521  0.63334690  0.65081137    -0.20000
C893        C  0.11255140  0.66809141  0.67519023    -0.25200
C894        C  0.12370526  0.66514094  0.71862421     0.27500
H895        H  0.12091658  0.56210700  0.72786012     0.13200
N896        N  0.09930420  0.55910266  0.64583528    -0.82500
H897        H  0.11029639  0.69771596  0.66037599     0.18100
N898        N  0.13237516  0.70109329  0.74300142    -0.81100
H899        H  0.12850119  0.54155420  0.64777129     0.33700
H900        H  0.07321646  0.54271670  0.65971045     0.38200
H901        H  0.12920213  0.72697467  0.72393613     0.33700
H902        H  0.10766374  0.70308053  0.76631834     0.30400
H903        H  0.06595332  0.56384493  0.82848340     0.33700
H904        H  0.05554270  0.60528574  0.79898458     0.30400
H905        H  0.24656966  0.66533254  0.86785259     0.38200
H906        H  0.26157158  0.66425371  0.81660583     0.33700
C907        C  0.09701436  0.63370335  0.34888316    -0.20000
C908        C  0.06529485  0.62582027  0.31629322     0.36200
C909        C  0.07992591  0.62142226  0.27400348    -0.26000
C910        C  0.12556412  0.62456984  0.26350017     0.02600
C911        C  0.15722431  0.63190728  0.29629255     0.27400
C912        C  0.14250692  0.63706853  0.33835567    -0.25100
N913        N  0.01827205  0.62366063  0.32588079    -0.82500
H914        H  0.05548840  0.61630055  0.24893762     0.13200
C915        C  0.14001431  0.62045834  0.21822108     0.02600
N916        N  0.20432835  0.63362962  0.28682987    -0.81100
H917        H  0.16682884  0.64315926  0.36329092     0.18100
C918        C  0.16748542  0.65048587  0.20015669    -0.25900
C919        C  0.18657472  0.64540998  0.15971325     0.36100
C920        C  0.17634771  0.61058348  0.13589121    -0.20000
C921        C  0.14639260  0.58188069  0.15248206    -0.25200
C922        C  0.12879236  0.58601140  0.19372583     0.27500
H923        H  0.17555978  0.67726977  0.21847177     0.13200
N924        N  0.21797210  0.67453126  0.14346875    -0.82500
H925        H  0.13963435  0.55451882  0.13460860     0.18100
N926        N  0.10170627  0.55430595  0.21161990    -0.81100
H927        H  0.22263195  0.69811201  0.16515885     0.33700
H928        H  0.20379754  0.68738686  0.11608256     0.38200
H929        H  0.09677626  0.53105764  0.18959285     0.33700
H930        H  0.11964601  0.54164508  0.23708878     0.30400
H931        H  0.22311136  0.63940476  0.31433721     0.33700
H932        H  0.21400630  0.60498432  0.27615370     0.30400
H933        H  0.00829775  0.65228341  0.33632663     0.38200
H934        H  0.99947532  0.61757809  0.29844179     0.33700
C935        C  0.09028264  0.36890237  0.66576284    -0.20000
C936        C  0.09897889  0.40805317  0.68155336     0.36200
C937        C  0.10874097  0.41313572  0.72514558    -0.26000
C938        C  0.10863165  0.38002585  0.75333534     0.02600
C939        C  0.09588683  0.34149421  0.73810997     0.27400
C940        C  0.08788561  0.33620559  0.69434076    -0.25100
N941        N  0.10027401  0.44208456  0.65299695    -0.82500
H942        H  0.11802407  0.44278353  0.73695806     0.13200
C943        C  0.12669119  0.38545015  0.79721848     0.02600
N944        N  0.08964839  0.30824480  0.76718549    -0.81100
H945        H  0.07957032  0.30635770  0.68244965     0.18100
C946        C  0.10576082  0.41205691  0.82576852    -0.25900
C947        C  0.12542955  0.42090915  0.86571966     0.36100
C948        C  0.16640296  0.40207518  0.87737902    -0.20000
C949        C  0.18559720  0.37384859  0.84963369    -0.25200
C950        C  0.16740755  0.36669854  0.80919199     0.27500
H951        H  0.07492148  0.42702770  0.81616592     0.13200
N952        N  0.10552304  0.45070253  0.89295304    -0.82500
H953        H  0.21723570  0.35969821  0.85822860     0.18100
N954        N  0.19163068  0.34233705  0.77921797    -0.81100
H955        H  0.07667607  0.46294065  0.87878185     0.33700
H956        H  0.09504255  0.43579536  0.92051536     0.38200
H957        H  0.20149063  0.36125800  0.75425222     0.33700
H958        H  0.22107127  0.33082286  0.79292736     0.30400
H959        H  0.07742460  0.28286784  0.75108747     0.33700
H960        H  0.12080891  0.29978123  0.77966479     0.30400
H961        H  0.06767889  0.44673524  0.64146821     0.38200
H962        H  0.10905305  0.46838539  0.66944822     0.33700
C963        C  0.17440591  0.41407864  0.14990586    -0.20000
C964        C  0.13048718  0.42637858  0.16069458     0.36200
C965        C  0.11315851  0.41602118  0.20095478    -0.26000
C966        C  0.13881469  0.39377217  0.23053496     0.02600
C967        C  0.18197333  0.38022385  0.21903976     0.27400
C968        C  0.19907531  0.39029613  0.17887855    -0.25100
N969        N  0.10470136  0.45132319  0.13209883    -0.82500
H970        H  0.07989151  0.42612012  0.20975111     0.13200
C971        C  0.12142172  0.38610720  0.27415886     0.02600
N972        N  0.20907397  0.35776623  0.24892851    -0.81100
H973        H  0.23296572  0.38123692  0.17089500     0.18100
C974        C  0.11746187  0.34609125  0.28862831    -0.25900
C975        C  0.10594176  0.33739776  0.33094590     0.36100
C976        C  0.09901917  0.36953190  0.35986976    -0.20000
C977        C  0.10032951  0.40956499  0.34476283    -0.25200
C978        C  0.11177302  0.41822739  0.30224292     0.27500
H979        H  0.12387912  0.32148590  0.26676672     0.13200
N980        N  0.10057683  0.29602940  0.34429814    -0.82500
H981        H  0.09402727  0.43419723  0.36660598     0.18100
N982        N  0.11492932  0.45948300  0.28782506    -0.81100
H983        H  0.10672158  0.27623945  0.31911268     0.33700
H984        H  0.06697038  0.29200807  0.35264876     0.38200
H985        H  0.10661289  0.47948200  0.31224845     0.33700
H986        H  0.14846638  0.46508938  0.28026068     0.30400
H987        H  0.23993448  0.35004584  0.23555920     0.33700
H988        H  0.21612870  0.37683484  0.27459401     0.30400
H989        H  0.09537638  0.43318424  0.10636921     0.38200
H990        H  0.07479076  0.46047320  0.14637174     0.33700
loop_ 
_geom_bond_atom_site_label_1 
_geom_bond_atom_site_label_2 
_geom_bond_distance 
_geom_bond_site_symmetry_2 
_ccdc_geom_bond_type 
C1           N19   1.348       .  A
C1           C38   1.459       .  S
C1          C864   1.465       .  S
N2           N19   1.322       .  A
N2           N24   1.317       .  A
N2          Co39   2.076       .  S
C3           N28   1.346       .  A
C3           C41   1.470       .  S
C3           H48   1.082       .  S
H4           C45   1.080       .  S
C5           N29   1.330       .  A
C5            C9   1.453       .  S
C5           H34   1.082       .  S
Co6          N24   2.077       .  S
Co6          N14   2.080       .  S
Co6          N46   2.078       .  S
Co6          N22   2.080       .  S
Co6         Cl50   2.418       .  S
N7           C45   1.348       .  A
N7           N14   1.322       .  A
N7           Co8   2.106       .  S
Co8          N11   2.103   1_554  S
Co8          N28   2.103       .  S
Co8          N15   2.110   1_554  S
Co8         Cl50   2.492       .  S
C9           N47   1.358       .  A
C9          C948   1.485       .  S
N10          N17   1.316       .  A
N10          N40   1.324       .  A
N10         Co43   2.084       .  S
N11          N29   1.320       .  A
N11          N47   1.330       .  A
N12          C41   1.346       .  A
N12          N22   1.321       .  A
H13          C38   1.081       .  S
N14          N35   1.320       .  A
N15          N33   1.322       .  A
N15          N20   1.330       .  A
C16          N20   1.358       .  A
C16          C44   1.451       .  S
C16         C879   1.480       .  S
N17          C32   1.335       .  A
N17         Co39   2.063   1_556  S
C18          N46   1.336       .  A
C18          C21   1.456       .  S
C18          H52   1.081       .  S
C21          N42   1.345       .  A
C21         C836   1.455       .  S
N22          N28   1.322       .  A
N23          C49   1.341       .  A
N23          N25   1.316       .  A
N23         Co39   2.077   1_556  S
N24          C38   1.339       .  A
N25          N53   1.322       .  A
N25         Co43   2.075       .  S
H26          C49   1.081       .  S
H27          C44   1.082       .  S
N29         Co43   2.066       .  S
N30          N42   1.321       .  A
N30          N46   1.318       .  A
N30         Co39   2.061       .  S
C31          N35   1.345       .  A
C31          C45   1.473       .  S
C31         C963   1.485       .  S
C32          C51   1.458       .  S
C32          H36   1.080       .  S
N33          C44   1.333       .  A
N33         Co43   2.074       .  S
C37          N53   1.348       .  A
C37          C49   1.460       .  S
C37         C767   1.468       .  S
Co39        Cl50   2.480       .  S
N40          C51   1.352       .  A
C41         C920   1.478       .  S
Co43        Cl50   2.412   1_556  S
C51         C795   1.477       .  S
C54          N72   1.356       .  A
C54          C91   1.455       .  S
C54         C739   1.470       .  S
N55          N72   1.326       .  A
N55          N77   1.319       .  A
N55         Co92   2.095       .  S
C56          N81   1.339       .  A
C56          C94   1.461       .  S
C56         H101   1.077       .  S
H57          C98   1.080       .  S
C58          N82   1.337       .  A
C58          C62   1.459       .  S
C58          H87   1.080       .  S
Co59         N77   2.072       .  S
Co59         N67   2.079       .  S
Co59         N99   2.076       .  S
Co59         N75   2.078       .  S
Co59       Cl103   2.415       .  S
N60          C98   1.338       .  A
N60          N67   1.315       .  A
N60         Co61   2.071   1_554  S
Co61         N64   2.084       .  S
Co61         N81   2.080   1_556  S
Co61         N68   2.077       .  S
Co61       Cl103   2.476   1_556  S
C62         N100   1.351       .  A
C62         C627   1.480       .  S
N63          N70   1.319       .  A
N63          N93   1.318       .  A
N63         Co96   2.071       .  S
N64          N82   1.317       .  A
N64         N100   1.323       .  A
N65          C94   1.350       .  A
N65          N75   1.323       .  A
H66          C91   1.082       .  S
N67          N88   1.323       .  A
N68          N86   1.315       .  A
N68          N73   1.323       .  A
C69          N73   1.350       .  A
C69          C97   1.460       .  S
C69         C599   1.479       .  S
N70          C85   1.345       .  A
N70         Co92   2.092   1_556  S
C71          N99   1.334       .  A
C71          C74   1.455       .  S
C71         H105   1.082       .  S
C74          N95   1.357       .  A
C74         C696   1.483       .  S
N75          N81   1.317       .  A
N76         C102   1.346       .  A
N76          N78   1.321       .  A
N76         Co92   2.097   1_556  S
N77          C91   1.333       .  A
N78         N106   1.319       .  A
N78         Co96   2.079       .  S
H79         C102   1.082       .  S
H80          C97   1.080       .  S
N82         Co96   2.070       .  S
N83          N95   1.329       .  A
N83          N99   1.320       .  A
N83         Co92   2.101       .  S
C84          N88   1.351       .  A
C84          C98   1.463       .  S
C84         C571   1.484       .  S
C85         C104   1.468       .  S
C85          H89   1.081       .  S
N86          C97   1.335       .  A
N86         Co96   2.065       .  S
C90         N106   1.345       .  A
C90         C102   1.469       .  S
C90         C655   1.473       .  S
Co92       Cl103   2.482       .  S
N93         C104   1.344       .  A
C94         C543   1.477       .  S
Co96       Cl103   2.417   1_556  S
C104        C711   1.466       .  S
C107        N125   1.354       .  A
C107        C144   1.461       .  S
C107        C851   1.489       .  S
N108        N125   1.327       .  A
N108        N130   1.316       .  A
N108       Co145   2.087       .  S
C109        N134   1.351       .  A
C109        C147   1.474       .  S
C109        H154   1.081       .  S
H110        C151   1.081       .  S
C111        N135   1.332       .  A
C111        C115   1.451       .  S
C111        H140   1.082       .  S
Co112       N130   2.073       .  S
Co112       N120   2.069       .  S
Co112       N152   2.068   1_545  S
Co112       N128   2.072   1_545  S
Co112      Cl156   2.416       .  S
N113        C151   1.351       .  A
N113        N120   1.321       .  A
N113       Co114   2.112       .  S
Co114       N117   2.117       .  S
Co114       N134   2.117   1_545  S
Co114       N121   2.111   1_545  S
Co114      Cl156   2.496       .  S
C115        N153   1.360       .  A
C115        C487   1.481       .  S
N116        N123   1.315       .  A
N116        N146   1.324       .  A
N116       Co149   2.081       .  S
N117        N135   1.322       .  A
N117        N153   1.332       .  A
N118        C147   1.344       .  A
N118        N128   1.318       .  A
H119        C144   1.079       .  S
N120        N141   1.317       .  A
N121        N139   1.322       .  A
N121        N126   1.331       .  A
C122        N126   1.358       .  A
C122        C150   1.449       .  S
C122        C444   1.479       .  S
N123        C138   1.337       .  A
N123       Co145   2.065       .  S
C124        N152   1.338       .  A
C124        C127   1.463       .  S
C124        H158   1.081       .  S
C127        N148   1.348       .  A
C127        C823   1.478       .  S
N128        N134   1.323       .  A
N129        C155   1.340       .  A
N129        N131   1.317       .  A
N129       Co145   2.079   1_565  S
N130        C144   1.334       .  A
N131        N159   1.324       .  A
N131       Co149   2.086   1_565  S
H132        C155   1.080       .  S
H133        C150   1.082       .  S
N135       Co149   2.073       .  S
N136        N148   1.321       .  A
N136        N152   1.315       .  A
N136       Co145   2.074   1_565  S
C137        N141   1.342       .  A
C137        C151   1.476       .  S
C137        C528   1.487       .  S
C138        C157   1.457       .  S
C138        H142   1.081       .  S
N139        C150   1.334       .  A
N139       Co149   2.072   1_565  S
C143        N159   1.352       .  A
C143        C155   1.463       .  S
C143        C556   1.488       .  S
Co145      Cl156   2.482       .  S
N146        C157   1.350       .  A
C147        C459   1.482       .  S
Co149      Cl156   2.412       .  S
C157        C584   1.465       .  S
C160        N178   1.364       .  A
C160        C197   1.451       .  S
C160        C416   1.494       .  S
N161        N178   1.335       .  A
N161        N183   1.321       .  A
N161       Co198   2.132       .  S
C162        N187   1.342       .  A
C162        C200   1.466       .  S
C162        H207   1.080       .  S
H163        C204   1.081       .  S
C164        N188   1.334       .  A
C164        C168   1.456       .  S
C164        H193   1.081       .  S
Co165       N183   2.062   1_565  S
Co165       N173   2.074   1_565  S
Co165       N205   2.076       .  S
Co165       N181   2.073       .  S
Co165      Cl209   2.406       .  S
N166        C204   1.334       .  A
N166        N173   1.315       .  A
N166       Co167   2.060   1_545  S
Co167       N170   2.086   1_565  S
Co167       N187   2.081       .  S
Co167       N174   2.066       .  S
Co167      Cl209   2.486       .  S
C168        N206   1.352       .  A
C168        C640   1.477       .  S
N169        N176   1.323       .  A
N169        N199   1.320       .  A
N169       Co202   2.077   1_545  S
N170        N188   1.317       .  A
N170        N206   1.327       .  A
N171        C200   1.348       .  A
N171        N181   1.320       .  A
H172        C197   1.082       .  S
N173        N194   1.323       .  A
N174        N192   1.315       .  A
N174        N179   1.321       .  A
C175        N179   1.346       .  A
C175        C203   1.459       .  S
C175        C612   1.458       .  S
N176        C191   1.349       .  A
N176       Co198   2.113       .  S
C177        N205   1.334       .  A
C177        C180   1.455       .  S
C177        H211   1.082       .  S
C180        N201   1.358       .  A
C180        C360   1.480       .  S
N181        N187   1.316       .  A
N182        C208   1.350       .  A
N182        N184   1.323       .  A
N182       Co198   2.117   1_565  S
N183        C197   1.329       .  A
N184        N212   1.318       .  A
N184       Co202   2.067       .  S
H185        C208   1.081       .  S
H186        C203   1.081       .  S
N188       Co202   2.071   1_545  S
N189        N201   1.330       .  A
N189        N205   1.321       .  A
N189       Co198   2.107   1_565  S
C190        N194   1.350       .  A
C190        C204   1.458       .  S
C190        C808   1.472       .  S
C191        C210   1.472       .  S
C191        H195   1.081       .  S
N192        C203   1.339       .  A
N192       Co202   2.077       .  S
C196        N212   1.341       .  A
C196        C208   1.473       .  S
C196        C332   1.478       .  S
Co198      Cl209   2.500   1_545  S
N199        C210   1.342       .  A
C200        C780   1.484       .  S
Co202      Cl209   2.412       .  S
C210        C388   1.476       .  S
C213        N231   1.353       .  A
C213        C250   1.459       .  S
C213        C976   1.487       .  S
N214        N231   1.328       .  A
N214        N236   1.316       .  A
N214       Co251   2.090       .  S
C215        N240   1.350       .  A
C215        C253   1.476       .  S
C215        H260   1.081       .  S
H216        C257   1.081       .  S
C217        N241   1.336       .  A
C217        C221   1.451       .  S
C217        H246   1.082       .  S
Co218       N236   2.082       .  S
Co218       N226   2.064       .  S
Co218       N258   2.080       .  S
Co218       N234   2.066       .  S
Co218      Cl262   2.413   1_455  S
N219        C257   1.354       .  A
N219        N226   1.323       .  A
N219       Co220   2.123   1_455  S
Co220       N223   2.127       .  S
Co220       N240   2.112   1_655  S
Co220       N227   2.106       .  S
Co220      Cl262   2.499       .  S
C221        N259   1.361       .  A
C221        C500   1.488       .  S
N222        N229   1.318       .  A
N222        N252   1.323       .  A
N222       Co255   2.081       .  S
N223        N241   1.323       .  A
N223        N259   1.333       .  A
N224        C253   1.342       .  A
N224        N234   1.317       .  A
H225        C250   1.080       .  S
N226        N247   1.316       .  A
N227        N245   1.322       .  A
N227        N232   1.329       .  A
C228        N232   1.356       .  A
C228        C256   1.454       .  S
C228        C375   1.476       .  S
N229        C244   1.342       .  A
N229       Co251   2.081   1_655  S
C230        N258   1.341       .  A
C230        C233   1.458       .  S
C230        H264   1.081       .  S
C233        N254   1.352       .  A
C233        C935   1.484       .  S
N234        N240   1.321       .  A
N235        C261   1.339       .  A
N235        N237   1.318       .  A
N235       Co251   2.075   1_655  S
N236        C250   1.340       .  A
N237        N265   1.324       .  A
N237       Co255   2.085       .  S
H238        C261   1.081       .  S
H239        C256   1.082       .  S
N241       Co255   2.075       .  S
N242        N254   1.328       .  A
N242        N258   1.317       .  A
N242       Co251   2.096       .  S
C243        N247   1.338       .  A
C243        C257   1.479       .  S
C243        C515   1.483       .  S
C244        C263   1.463       .  S
C244        H248   1.081       .  S
N245        C256   1.336       .  A
N245       Co255   2.080       .  S
C249        N265   1.350       .  A
C249        C261   1.457       .  S
C249        C724   1.473       .  S
Co251      Cl262   2.485   1_455  S
N252        C263   1.349       .  A
C253        C403   1.483       .  S
Co255      Cl262   2.418       .  S
C263        C752   1.482       .  S
C266        N284   1.361       .  A
C266        C303   1.448       .  S
C266        C472   1.484       .  S
N267        N284   1.333       .  A
N267        N289   1.322       .  A
N267       Co304   2.125   1_455  S
C268        N293   1.343       .  A
C268        C306   1.463       .  S
C268        H313   1.080       .  S
H269        C310   1.081       .  S
C270        N294   1.338       .  A
C270        C274   1.456       .  S
C270        H299   1.081       .  S
Co271       N289   2.066       .  S
Co271       N279   2.089       .  S
Co271       N311   2.068       .  S
Co271       N287   2.077       .  S
Co271      Cl315   2.414   1_455  S
N272        C310   1.345       .  A
N272        N279   1.318       .  A
N272       Co273   2.092   1_455  S
Co273       N276   2.087       .  S
Co273       N293   2.085   1_655  S
Co273       N280   2.092       .  S
Co273      Cl315   2.484       .  S
C274        N312   1.349       .  A
C274        C683   1.475       .  S
N275        N282   1.322       .  A
N275        N305   1.320       .  A
N275       Co308   2.076       .  S
N276        N294   1.318       .  A
N276        N312   1.326       .  A
N277        C306   1.348       .  A
N277        N287   1.323       .  A
H278        C303   1.082       .  S
N279        N300   1.326       .  A
N280        N298   1.318       .  A
N280        N285   1.328       .  A
C281        N285   1.352       .  A
C281        C309   1.452       .  S
C281        C668   1.476       .  S
N282        C297   1.350       .  A
N282       Co304   2.110       .  S
C283        N311   1.332       .  A
C283        C286   1.449       .  S
C283        H317   1.082       .  S
C286        N307   1.358       .  A
C286        C347   1.471       .  S
N287        N293   1.316       .  A
N288        C314   1.351       .  A
N288        N290   1.322       .  A
N288       Co304   2.117       .  S
N289        C303   1.332       .  A
N290        N318   1.318       .  A
N290       Co308   2.074       .  S
H291        C314   1.081       .  S
H292        C309   1.081       .  S
N294       Co308   2.075       .  S
N295        N307   1.329       .  A
N295        N311   1.320       .  A
N295       Co304   2.107   1_455  S
C296        N300   1.351       .  A
C296        C310   1.463       .  S
C296        C907   1.487       .  S
C297        C316   1.474       .  S
C297        H301   1.081       .  S
N298        C309   1.337       .  A
N298       Co308   2.073       .  S
C302        N318   1.344       .  A
C302        C314   1.475       .  S
C302        C319   1.483       .  S
Co304      Cl315   2.496       .  S
N305        C316   1.344       .  A
C306        C892   1.480       .  S
Co308      Cl315   2.413       .  S
C316        C431   1.487       .  S
C319        C320   1.407       .  A
C319        C324   1.406       .  A
C320        C321   1.413       .  A
C320        N325   1.436       .  S
C321        H326   1.084       .  S
C321        C322   1.410       .  A
C322        C327   1.491       .  S
C322        C323   1.416       .  A
C323        C324   1.400       .  A
C323        N328   1.439       .  S
C324        H329   1.084       .  S
N325        H345   1.045       .  S
N325        H346   1.046       .  S
C327        C330   1.406       .  A
C327        C334   1.410       .  A
N328        H343   1.046       .  S
N328        H344   1.041       .  S
C330        H335   1.084       .  S
C330        C331   1.411       .  A
C331        C332   1.411       .  A
C331        N336   1.436       .  S
C332        C333   1.403       .  A
C333        H337   1.084       .  S
C333        C334   1.406       .  A
C334        N338   1.438       .  S
N336        H339   1.046       .  S
N336        H340   1.045       .  S
N338        H341   1.046       .  S
N338        H342   1.045       .  S
C347        C348   1.412       .  A
C347        C352   1.400       .  A
C348        C349   1.406       .  A
C348        N353   1.438       .  S
C349        H354   1.084       .  S
C349        C350   1.401       .  A
C350        C355   1.482       .  S
C350        C351   1.411       .  A
C351        C352   1.407       .  A
C351        N356   1.438       .  S
C352        H357   1.084       .  S
N353        H373   1.046       .  S
N353        H374   1.045       .  S
C355        C358   1.398       .  A
C355        C362   1.412       .  A
N356        H371   1.045       .  S
N356        H372   1.046       .  S
C358        H363   1.084       .  S
C358        C359   1.403       .  A
C359        C360   1.414       .  A
C359        N364   1.438       .  S
C360        C361   1.403       .  A
C361        H365   1.084       .  S
C361        C362   1.412       .  A
C362        N366   1.437       .  S
N364        H367   1.046       .  S
N364        H368   1.045       .  S
N366        H369   1.046       .  S
N366        H370   1.045       .  S
C375        C376   1.410       .  A
C375        C380   1.399       .  A
C376        C377   1.407       .  A
C376        N381   1.437       .  S
C377        H382   1.084       .  S
C377        C378   1.404       .  A
C378        C383   1.492       .  S
C378        C379   1.422       .  A
C379        C380   1.404       .  A
C379        N384   1.438       .  S
C380        H385   1.084       .  S
N381        H401   1.046       .  S
N381        H402   1.045       .  S
C383        C386   1.404       .  A
C383        C390   1.411       .  A
N384        H399   1.046       .  S
N384        H400   1.042       .  S
C386        H391   1.084       .  S
C386        C387   1.410       .  A
C387        C388   1.412       .  A
C387        N392   1.436       .  S
C388        C389   1.401       .  A
C389        H393   1.084       .  S
C389        C390   1.405       .  A
C390        N394   1.432       .  S
N392        H395   1.045       .  S
N392        H396   1.045       .  S
N394        H397   1.045       .  S
N394        H398   1.046       .  S
C403        C404   1.413       .  A
C403        C408   1.406       .  A
C404        C405   1.412       .  A
C404        N409   1.436       .  S
C405        H410   1.084       .  S
C405        C406   1.406       .  A
C406        C411   1.489       .  S
C406        C407   1.408       .  A
C407        C408   1.404       .  A
C407        N412   1.438       .  S
C408        H413   1.085       .  S
N409        H429   1.045       .  S
N409        H430   1.046       .  S
C411        C414   1.409       .  A
C411        C418   1.405       .  A
N412        H427   1.046       .  S
N412        H428   1.045       .  S
C414        H419   1.083       .  S
C414        C415   1.415       .  A
C415        C416   1.410       .  A
C415        N420   1.436       .  S
C416        C417   1.411       .  A
C417        H421   1.082       .  S
C417        C418   1.403       .  A
C418        N422   1.439       .  S
N420        H423   1.046       .  S
N420        H424   1.045       .  S
N422        H425   1.046       .  S
N422        H426   1.046       .  S
C431        C432   1.417       .  A
C431        C436   1.410       .  A
C432        C433   1.409       .  A
C432        N437   1.437       .  S
C433        H438   1.084       .  S
C433        C434   1.405       .  A
C434        C439   1.487       .  S
C434        C435   1.405       .  A
C435        C436   1.405       .  A
C435        N440   1.438       .  S
C436        H441   1.084       .  S
N437        H457   1.043       .  S
N437        H458   1.045       .  S
C439        C442   1.401       .  A
C439        C446   1.417       .  A
N440        H455   1.045       .  S
N440        H456   1.045       .  S
C442        H447   1.084       .  S
C442        C443   1.401       .  A
C443        C444   1.415       .  A
C443        N448   1.439       .  S
C444        C445   1.406       .  A
C445        H449   1.083       .  S
C445        C446   1.408       .  A
C446        N450   1.438       .  S
N448        H451   1.046       .  S
N448        H452   1.044       .  S
N450        H453   1.046       .  S
N450        H454   1.043       .  S
C459        C460   1.407       .  A
C459        C464   1.407       .  A
C460        C461   1.412       .  A
C460        N465   1.436       .  S
C461        H466   1.084       .  S
C461        C462   1.409       .  A
C462        C467   1.490       .  S
C462        C463   1.408       .  A
C463        C464   1.405       .  A
C463        N468   1.438       .  S
C464        H469   1.084       .  S
N465        H485   1.045       .  S
N465        H486   1.046       .  S
C467        C470   1.405       .  A
C467        C474   1.409       .  A
N468        H483   1.046       .  S
N468        H484   1.045       .  S
C470        H475   1.083       .  S
C470        C471   1.412       .  A
C471        C472   1.412       .  A
C471        N476   1.436       .  S
C472        C473   1.405       .  A
C473        H477   1.084       .  S
C473        C474   1.406       .  A
C474        N478   1.438       .  S
N476        H479   1.046       .  S
N476        H480   1.045       .  S
N478        H481   1.046       .  S
N478        H482   1.046       .  S
C487        C488   1.413       .  A
C487        C492   1.400       .  A
C488        C489   1.407       .  A
C488        N493   1.438       .  S
C489        H494   1.083       .  S
C489        C490   1.404       .  A
C490        C495   1.499       .  S
C490        C491   1.417       .  A
C491        C492   1.413       .  A
C491        N496   1.437       .  S
C492        H497   1.084       .  S
N493        H513   1.045       .  S
N493        H514   1.045       .  S
C495        C498   1.405       .  A
C495        C502   1.415       .  A
N496        H511   1.046       .  S
N496        H512   1.045       .  S
C498        H503   1.084       .  S
C498        C499   1.409       .  A
C499        C500   1.412       .  A
C499        N504   1.438       .  S
C500        C501   1.404       .  A
C501        H505   1.082       .  S
C501        C502   1.413       .  A
C502        N506   1.437       .  S
N504        H507   1.046       .  S
N504        H508   1.046       .  S
N506        H509   1.045       .  S
N506        H510   1.046       .  S
C515        C516   1.412       .  A
C515        C520   1.404       .  A
C516        C517   1.415       .  A
C516        N521   1.436       .  S
C517        H522   1.083       .  S
C517        C518   1.408       .  A
C518        C523   1.492       .  S
C518        C519   1.410       .  A
C519        C520   1.401       .  A
C519        N524   1.439       .  S
C520        H525   1.082       .  S
N521        H541   1.045       .  S
N521        H542   1.046       .  S
C523        C526   1.400       .  A
C523        C530   1.415       .  A
N524        H539   1.046       .  S
N524        H540   1.046       .  S
C526        H531   1.084       .  S
C526        C527   1.398       .  A
C527        C528   1.414       .  A
C527        N532   1.433       .  S
C528        C529   1.406       .  A
C529        H533   1.083       .  S
C529        C530   1.415       .  A
C530        N534   1.437       .  S
N532        H535   1.045       .  S
N532        H536   1.046       .  S
N534        H537   1.046       .  S
N534        H538   1.046       .  S
C543        C544   1.412       .  A
C543        C548   1.405       .  A
C544        C545   1.398       .  A
C544        N549   1.431       .  S
C545        H550   1.084       .  S
C545        C546   1.403       .  A
C546        C551   1.482       .  S
C546        C547   1.410       .  A
C547        C548   1.405       .  A
C547        N552   1.438       .  S
C548        H553   1.084       .  S
N549        H569   1.046       .  S
N549        H570   1.042       .  S
C551        C554   1.401       .  A
C551        C558   1.408       .  A
N552        H567   1.046       .  S
N552        H568   1.046       .  S
C554        H559   1.084       .  S
C554        C555   1.406       .  A
C555        C556   1.417       .  A
C555        N560   1.437       .  S
C556        C557   1.407       .  A
C557        H561   1.081       .  S
C557        C558   1.404       .  A
C558        N562   1.438       .  S
N560        H563   1.045       .  S
N560        H564   1.045       .  S
N562        H565   1.045       .  S
N562        H566   1.045       .  S
C571        C572   1.418       .  A
C571        C576   1.406       .  A
C572        C573   1.405       .  A
C572        N577   1.438       .  S
C573        H578   1.084       .  S
C573        C574   1.400       .  A
C574        C579   1.476       .  S
C574        C575   1.405       .  A
C575        C576   1.398       .  A
C575        N580   1.432       .  S
C576        H581   1.081       .  S
N577        H597   1.046       .  S
N577        H598   1.045       .  S
C579        C582   1.399       .  A
C579        C586   1.411       .  A
N580        H595   1.045       .  S
N580        H596   1.044       .  S
C582        H587   1.079       .  S
C582        C583   1.398       .  A
C583        C584   1.409       .  A
C583        N588   1.439       .  S
C584        C585   1.400       .  A
C585        H589   1.084       .  S
C585        C586   1.406       .  A
C586        N590   1.438       .  S
N588        H591   1.045       .  S
N588        H592   1.046       .  S
N590        H593   1.045       .  S
N590        H594   1.046       .  S
C599        C600   1.418       .  A
C599        C604   1.406       .  A
C600        C601   1.401       .  A
C600        N605   1.436       .  S
C601        H606   1.083       .  S
C601        C602   1.396       .  A
C602        C607   1.465       .  S
C602        C603   1.404       .  A
C603        C604   1.399       .  A
C603        N608   1.439       .  S
C604        H609   1.082       .  S
N605        H625   1.046       .  S
N605        H626   1.045       .  S
C607        C610   1.403       .  A
C607        C614   1.413       .  A
N608        H623   1.046       .  S
N608        H624   1.045       .  S
C610        H615   1.084       .  S
C610        C611   1.401       .  A
C611        C612   1.404       .  A
C611        N616   1.437       .  S
C612        C613   1.401       .  A
C613        H617   1.085       .  S
C613        C614   1.395       .  A
C614        N618   1.439       .  S
N616        H619   1.046       .  S
N616        H620   1.046       .  S
N618        H621   1.045       .  S
N618        H622   1.043       .  S
C627        C628   1.412       .  A
C627        C632   1.407       .  A
C628        C629   1.404       .  A
C628        N633   1.438       .  S
C629        H634   1.080       .  S
C629        C630   1.400       .  A
C630        C635   1.476       .  S
C630        C631   1.407       .  A
C631        C632   1.401       .  A
C631        N636   1.438       .  S
C632        H637   1.082       .  S
N633        H653   1.047       .  S
N633        H654   1.044       .  S
C635        C638   1.397       .  A
C635        C642   1.408       .  A
N636        H651   1.045       .  S
N636        H652   1.045       .  S
C638        H643   1.084       .  S
C638        C639   1.395       .  A
C639        C640   1.413       .  A
C639        N644   1.433       .  S
C640        C641   1.404       .  A
C641        H645   1.084       .  S
C641        C642   1.407       .  A
C642        N646   1.431       .  S
N644        H647   1.046       .  S
N644        H648   1.046       .  S
N646        H649   1.045   1_556  S
N646        H650   1.046   1_556  S
C655        C656   1.408       .  A
C655        C660   1.404       .  A
C656        C657   1.403       .  A
C656        N661   1.438       .  S
C657        H662   1.084       .  S
C657        C658   1.405       .  A
C658        C663   1.491       .  S
C658        C659   1.414       .  A
C659        C660   1.409       .  A
C659        N664   1.438       .  S
C660        H665   1.084       .  S
N661        H681   1.045       .  S
N661        H682   1.046       .  S
C663        C666   1.405       .  A
C663        C670   1.415       .  A
N664        H679   1.046       .  S
N664        H680   1.045       .  S
C666        H671   1.083       .  S
C666        C667   1.409       .  A
C667        C668   1.412       .  A
C667        N672   1.436       .  S
C668        C669   1.399       .  A
C669        H673   1.084       .  S
C669        C670   1.403       .  A
C670        N674   1.438       .  S
N672        H675   1.046   1_655  S
N672        H676   1.044       .  S
N674        H677   1.046       .  S
N674        H678   1.045       .  S
C683        C684   1.413       .  A
C683        C688   1.400       .  A
C684        C685   1.405       .  A
C684        N689   1.438       .  S
C685        H690   1.084       .  S
C685        C686   1.402       .  A
C686        C691   1.484       .  S
C686        C687   1.413       .  A
C687        C688   1.407       .  A
C687        N692   1.438       .  S
C688        H693   1.084       .  S
N689        H709   1.046       .  S
N689        H710   1.045       .  S
C691        C694   1.403       .  A
C691        C698   1.407       .  A
N692        H707   1.046       .  S
N692        H708   1.046       .  S
C694        H699   1.084       .  S
C694        C695   1.410       .  A
C695        C696   1.414       .  A
C695        N700   1.436       .  S
C696        C697   1.404       .  A
C697        H701   1.084       .  S
C697        C698   1.401       .  A
C698        N702   1.433       .  S
N700        H703   1.046       .  S
N700        H704   1.045       .  S
N702        H705   1.046       .  S
N702        H706   1.045       .  S
C711        C712   1.408       .  A
C711        C716   1.401       .  A
C712        C713   1.405       .  A
C712        N717   1.437       .  S
C713        H718   1.084       .  S
C713        C714   1.405       .  A
C714        C719   1.484       .  S
C714        C715   1.409       .  A
C715        C716   1.401       .  A
C715        N720   1.431       .  S
C716        H721   1.084       .  S
N717        H737   1.045       .  S
N717        H738   1.046       .  S
C719        C722   1.405       .  A
C719        C726   1.411       .  A
N720        H735   1.045       .  S
N720        H736   1.045       .  S
C722        H727   1.084       .  S
C722        C723   1.404       .  A
C723        C724   1.407       .  A
C723        N728   1.438       .  S
C724        C725   1.405       .  A
C725        H729   1.084       .  S
C725        C726   1.404       .  A
C726        N730   1.438       .  S
N728        H731   1.046       .  S
N728        H732   1.046       .  S
N730        H733   1.046       .  S
N730        H734   1.045       .  S
C739        C740   1.412       .  A
C739        C744   1.400       .  A
C740        C741   1.403       .  A
C740        N745   1.437       .  S
C741        H746   1.084       .  S
C741        C742   1.401       .  A
C742        C747   1.484       .  S
C742        C743   1.413       .  A
C743        C744   1.407       .  A
C743        N748   1.438       .  S
C744        H749   1.084       .  S
N745        H765   1.045       .  S
N745        H766   1.045       .  S
C747        C750   1.402       .  A
C747        C754   1.411       .  A
N748        H763   1.045       .  S
N748        H764   1.046       .  S
C750        H755   1.084       .  S
C750        C751   1.400       .  A
C751        C752   1.410       .  A
C751        N756   1.433       .  S
C752        C753   1.406       .  A
C753        H757   1.082       .  S
C753        C754   1.407       .  A
C754        N758   1.438       .  S
N756        H759   1.046       .  S
N756        H760   1.046       .  S
N758        H761   1.045       .  S
N758        H762   1.046       .  S
C767        C768   1.405       .  A
C767        C772   1.401       .  A
C768        C769   1.405       .  A
C768        N773   1.437       .  S
C769        H774   1.083       .  S
C769        C770   1.407       .  A
C770        C775   1.487       .  S
C770        C771   1.414       .  A
C771        C772   1.401       .  A
C771        N776   1.439       .  S
C772        H777   1.084       .  S
N773        H793   1.045       .  S
N773        H794   1.045       .  S
C775        C778   1.402       .  A
C775        C782   1.412       .  A
N776        H791   1.045       .  S
N776        H792   1.044       .  S
C778        H783   1.083       .  S
C778        C779   1.402       .  A
C779        C780   1.416       .  A
C779        N784   1.438       .  S
C780        C781   1.405       .  A
C781        H785   1.081       .  S
C781        C782   1.404       .  A
C782        N786   1.438       .  S
N784        H787   1.045       .  S
N784        H788   1.047       .  S
N786        H789   1.044       .  S
N786        H790   1.045       .  S
C795        C796   1.413       .  A
C795        C800   1.405       .  A
C796        C797   1.395       .  A
C796        N801   1.431   1_556  S
C797        H802   1.085       .  S
C797        C798   1.399       .  A
C798        C803   1.475       .  S
C798        C799   1.408       .  A
C799        C800   1.405       .  A
C799        N804   1.437       .  S
C800        H805   1.084       .  S
N801        H821   1.045       .  S
N801        H822   1.043       .  S
C803        C806   1.403       .  A
C803        C810   1.406       .  A
N804        H819   1.046       .  S
N804        H820   1.046       .  S
C806        H811   1.084       .  S
C806        C807   1.406       .  A
C807        C808   1.411       .  A
C807        N812   1.437       .  S
C808        C809   1.403       .  A
C809        H813   1.082       .  S
C809        C810   1.395       .  A
C810        N814   1.436       .  S
N812        H815   1.045       .  S
N812        H816   1.046       .  S
N814        H817   1.043       .  S
N814        H818   1.046       .  S
C823        C824   1.412       .  A
C823        C828   1.405       .  A
C824        C825   1.399       .  A
C824        N829   1.432       .  S
C825        H830   1.084       .  S
C825        C826   1.400       .  A
C826        C831   1.472       .  S
C826        C827   1.409       .  A
C827        C828   1.400       .  A
C827        N832   1.439       .  S
C828        H833   1.081       .  S
N829        H849   1.045       .  S
N829        H850   1.045       .  S
C831        C834   1.403       .  A
C831        C838   1.408       .  A
N832        H847   1.045       .  S
N832        H848   1.046       .  S
C834        H839   1.084       .  S
C834        C835   1.396       .  A
C835        C836   1.410       .  A
C835        N840   1.438       .  S
C836        C837   1.400       .  A
C837        H841   1.085       .  S
C837        C838   1.399       .  A
C838        N842   1.437       .  S
N840        H843   1.045       .  S
N840        H844   1.044       .  S
N842        H845   1.044   1_554  S
N842        H846   1.046       .  S
C851        C852   1.417       .  A
C851        C856   1.409       .  A
C852        C853   1.410       .  A
C852        N857   1.438       .  S
C853        H858   1.083       .  S
C853        C854   1.402       .  A
C854        C859   1.476       .  S
C854        C855   1.403       .  A
C855        C856   1.399       .  A
C855        N860   1.439       .  S
C856        H861   1.079       .  S
N857        H877   1.046       .  S
N857        H878   1.046       .  S
C859        C862   1.400       .  A
C859        C866   1.409       .  A
N860        H875   1.045       .  S
N860        H876   1.045       .  S
C862        H867   1.084       .  S
C862        C863   1.400       .  A
C863        C864   1.411       .  A
C863        N868   1.438       .  S
C864        C865   1.400       .  A
C865        H869   1.084       .  S
C865        C866   1.405       .  A
C866        N870   1.435       .  S
N868        H871   1.046       .  S
N868        H872   1.046       .  S
N870        H873   1.046       .  S
N870        H874   1.046       .  S
C879        C880   1.411       .  A
C879        C884   1.404       .  A
C880        C881   1.403       .  A
C880        N885   1.438       .  S
C881        H886   1.084       .  S
C881        C882   1.403       .  A
C882        C887   1.491       .  S
C882        C883   1.414       .  A
C883        C884   1.411       .  A
C883        N888   1.437       .  S
C884        H889   1.084       .  S
N885        H905   1.044       .  S
N885        H906   1.046       .  S
C887        C890   1.406       .  A
C887        C894   1.413       .  A
N888        H903   1.046       .  S
N888        H904   1.045       .  S
C890        H895   1.084       .  S
C890        C891   1.404       .  A
C891        C892   1.406       .  A
C891        N896   1.431       .  S
C892        C893   1.405       .  A
C893        H897   1.084       .  S
C893        C894   1.407       .  A
C894        N898   1.438       .  S
N896        H899   1.046       .  S
N896        H900   1.045       .  S
N898        H901   1.046       .  S
N898        H902   1.045       .  S
C907        C908   1.415       .  A
C907        C912   1.402       .  A
C908        C909   1.411       .  A
C908        N913   1.437       .  S
C909        H914   1.083       .  S
C909        C910   1.406       .  A
C910        C915   1.497       .  S
C910        C911   1.415       .  A
C911        C912   1.408       .  A
C911        N916   1.438       .  S
C912        H917   1.084       .  S
N913        H933   1.045       .  S
N913        H934   1.046   1_455  S
C915        C918   1.407       .  A
C915        C922   1.415       .  A
N916        H931   1.045       .  S
N916        H932   1.046       .  S
C918        H923   1.083       .  S
C918        C919   1.408       .  A
C919        C920   1.407       .  A
C919        N924   1.437       .  S
C920        C921   1.404       .  A
C921        H925   1.084       .  S
C921        C922   1.410       .  A
C922        N926   1.438       .  S
N924        H927   1.046       .  S
N924        H928   1.045       .  S
N926        H929   1.046       .  S
N926        H930   1.046       .  S
C935        C936   1.410       .  A
C935        C940   1.405       .  A
C936        C937   1.410       .  A
C936        N941   1.437       .  S
C937        H942   1.084       .  S
C937        C938   1.405       .  A
C938        C943   1.490       .  S
C938        C939   1.412       .  A
C939        C940   1.407       .  A
C939        N944   1.439       .  S
C940        H945   1.084       .  S
N941        H961   1.045       .  S
N941        H962   1.045       .  S
C943        C946   1.407       .  A
C943        C950   1.410       .  A
N944        H959   1.045       .  S
N944        H960   1.043       .  S
C946        H951   1.084       .  S
C946        C947   1.415       .  A
C947        C948   1.415       .  A
C947        N952   1.437       .  S
C948        C949   1.403       .  A
C949        H953   1.084       .  S
C949        C950   1.400       .  A
C950        N954   1.439       .  S
N952        H955   1.046       .  S
N952        H956   1.045       .  S
N954        H957   1.046       .  S
N954        H958   1.046       .  S
C963        C964   1.414       .  A
C963        C968   1.404       .  A
C964        C965   1.412       .  A
C964        N969   1.436       .  S
C965        H970   1.084       .  S
C965        C966   1.405       .  A
C966        C971   1.491       .  S
C966        C967   1.411       .  A
C967        C968   1.404       .  A
C967        N972   1.439       .  S
C968        H973   1.084       .  S
N969        H989   1.045       .  S
N969        H990   1.046       .  S
C971        C974   1.401       .  A
C971        C978   1.413       .  A
N972        H987   1.046       .  S
N972        H988   1.046       .  S
C974        H979   1.084       .  S
C974        C975   1.406       .  A
C975        C976   1.416       .  A
C975        N980   1.437       .  S
C976        C977   1.404       .  A
C977        H981   1.084       .  S
C977        C978   1.411       .  A
C978        N982   1.438       .  S
N980        H983   1.046       .  S
N980        H984   1.046       .  S
N982        H985   1.046       .  S
N982        H986   1.045       .  S
