geometry optimzed in LAMMPS
_audit_creation_date              2020-11-30 
_audit_creation_method            'lammps2cif' 
_symmetry_space_group_name_H-M    'P1' 
_symmetry_Int_Tables_number       1 
_symmetry_cell_setting            triclinic 
loop_ 
_symmetry_equiv_pos_as_xyz 
  x,y,z 
_cell_length_a                    49.49036762 
_cell_length_b                    47.13683470967331 
_cell_length_c                    44.73900003233429 
_cell_angle_alpha                 89.54728356590988 
_cell_angle_beta                  90.14880342431545 
_cell_angle_gamma                 89.39363713645604 
loop_ 
_atom_site_label 
_atom_site_type_symbol 
_atom_site_fract_x 
_atom_site_fract_y 
_atom_site_fract_z 
_atom_site_charge 
O1          O  0.13315292  0.19185316  0.04942157    -0.75700
O2          O  0.10909801  0.16453173  0.01745287    -0.54600
C3          C  0.12475189  0.16733216  0.03982126     0.78100
O4          O  0.04736949  0.30057824  0.04847693    -0.60300
O5          O  0.07386615  0.33191600  0.02323237    -0.53300
C6          C  0.05917414  0.32460192  0.04567991     0.70100
O7          O  0.04992528  0.21138230  0.05447724    -0.74800
O8          O  0.06115299  0.17335578  0.02622334    -0.55400
C9          C  0.05497626  0.18486334  0.05141378     0.76100
O10         O  0.13919114  0.29394827  0.05280067    -0.60000
O11         O  0.12249814  0.32751841  0.02033050    -0.53100
C12         C  0.13478575  0.32028131  0.04421588     0.72700
Zr13       Zr  0.12825677  0.24383566  0.03497172     2.54700
O14         O  0.12286376  0.24009601  0.08894731    -0.80500
O15         O  0.17726298  0.24118548  0.03927808    -0.94000
Zr16       Zr  0.04764735  0.25428308  0.02446884     2.64700
O17         O  0.02039264  0.25814321  0.06982593    -0.98900
O18         O  0.00268116  0.25843974  0.00282575    -0.81000
O19         O  0.08635740  0.22783343  0.02289625    -0.84300
O20         O  0.09060818  0.27466161  0.03081380    -2.19000
O21         O  0.14881993  0.29309988  0.43990046    -0.67700
O22         O  0.12373661  0.32740463  0.46341709    -0.52300
C23         C  0.14245467  0.31954850  0.44581021     0.71000
O24         O  0.06046788  0.21177498  0.40952973    -0.60600
O25         O  0.06197602  0.17407941  0.44076580    -0.52600
C26         C  0.06238229  0.18495474  0.41421843     0.72800
O27         O  0.05677506  0.30094155  0.41553939    -0.72000
O28         O  0.07973047  0.33131804  0.44563007    -0.50700
C29         C  0.06925445  0.32416191  0.42041903     0.74200
O30         O  0.13998597  0.19189825  0.43977211    -0.67400
O31         O  0.10726692  0.16564164  0.46219329    -0.54600
C32         C  0.12848785  0.16790273  0.44626375     0.72600
Zr33       Zr  0.13213180  0.24317524  0.45262092     2.77500
O34         O  0.14064993  0.24115882  0.39905548    -0.98100
O35         O  0.18000228  0.23888427  0.46474803    -0.78900
Zr36       Zr  0.05207905  0.25440596  0.43797932     2.70100
O37         O  0.03904147  0.25934089  0.38559757    -0.80200
O38         O  0.00303786  0.25182361  0.43796760    -0.99300
Zr39       Zr  0.07731168  0.19713778  0.48683105     2.21500
Zr40       Zr  0.09681180  0.30205522  0.98659734     2.11100
O41         O  0.09530096  0.27428405  0.44506330    -2.47900
O42         O  0.08868786  0.22708618  0.44981070    -0.80000
O43         O  0.12888140  0.26964218  0.49729032    -0.72200
O44         O  0.04611470  0.22540852  0.98075736    -2.33100
O45         O  0.12199933  0.21496871  0.49583452    -2.29300
O46         O  0.05271745  0.28342633  0.98147705    -0.73900
H47         H  0.09159747  0.28485441  0.04925421     0.78100
H48         H  0.02989201  0.21431619  0.97894758     0.79200
H49         H  0.10091618  0.28454802  0.42757543     0.81400
H50         H  0.13522584  0.19996494  0.49866904     0.79000
H51         H  0.99569718  0.27691183  0.01004904     0.42000
H52         H  0.99695961  0.26942640  0.42768333     0.41000
H53         H  0.05625603  0.25912838  0.37434531     0.40700
H54         H  0.12369460  0.24824270  0.38970641     0.38600
H55         H  0.18047666  0.23049445  0.48509253     0.41700
H56         H  0.18247722  0.22417895  0.02770475     0.36500
H57         H  0.11724109  0.25933111  0.09533963     0.42600
H58         H  0.01192643  0.23952251  0.07334999     0.39100
H59         H  0.15392959  0.25629193  0.39510950     0.44000
H60         H  0.18054778  0.23564151  0.06038661     0.42700
H61         H  0.03364222  0.25987044  0.08632981     0.42800
H62         H  0.99894349  0.23651533  0.42367348     0.43200
O63         O  0.41179214  0.20851566  0.07534912    -0.75700
O64         O  0.39978452  0.16893644  0.04998973    -0.54600
C65         C  0.40632746  0.18216432  0.07439411     0.78100
O66         O  0.33077488  0.29961441  0.05729855    -0.60300
O67         O  0.35739607  0.32745327  0.02765318    -0.53300
C68         C  0.33897074  0.32414323  0.04718436     0.70100
O69         O  0.33225628  0.19798831  0.06864897    -0.74800
O70         O  0.34669294  0.16233803  0.52913689    -0.55400
C71         C  0.33768879  0.17178293  0.06118766     0.76100
O72         O  0.43895850  0.29063989  0.04787567    -0.60000
O73         O  0.40678794  0.32246988  0.03760752    -0.53100
C74         C  0.42318340  0.31061018  0.05638869     0.72700
Zr75       Zr  0.42525262  0.24209947  0.03861197     2.54700
O76         O  0.45681901  0.24667292  0.08041587    -0.80500
O77         O  0.46691964  0.21583676  0.02728245    -0.94000
Zr78       Zr  0.34175107  0.24754029  0.04894068     2.64700
O79         O  0.34799938  0.25117926  0.10280374    -0.98900
O80         O  0.29264995  0.24815668  0.05234970    -0.81000
O81         O  0.38217452  0.22132568  0.04354906    -0.84300
O82         O  0.38427468  0.26946910  0.04294284    -2.19000
O83         O  0.42794281  0.28400286  0.43297610    -0.67700
O84         O  0.40372772  0.31903765  0.45569399    -0.52300
C85         C  0.41795713  0.30914365  0.43391451     0.71000
O86         O  0.33273969  0.19206816  0.43487806    -0.60600
O87         O  0.34043240  0.16479256  0.47547244    -0.52600
C88         C  0.33517374  0.16720408  0.44793435     0.72800
O89         O  0.32979734  0.29535116  0.43629736    -0.72000
O90         O  0.35493901  0.32474901  0.46546836    -0.50700
C91         C  0.33861702  0.32036940  0.44404498     0.74200
O92         O  0.40315162  0.19906111  0.42594959    -0.67400
O93         O  0.39555848  0.16309968  0.45849973    -0.54600
C94         C  0.39854321  0.17303755  0.43178287     0.72600
Zr95       Zr  0.41719696  0.23854328  0.45505627     2.77500
O96         O  0.43721363  0.24197264  0.40536235    -0.98100
O97         O  0.46186183  0.21709322  0.46076871    -0.78900
Zr98       Zr  0.33595873  0.24352915  0.45241578     2.70100
O99         O  0.32627984  0.24597691  0.39907790    -0.80200
O100        O  0.28752552  0.24278266  0.46201445    -0.99300
Zr101      Zr  0.37515286  0.18944974  0.50004707     2.21500
Zr102      Zr  0.38034589  0.29485142  0.49693935     2.11100
O103        O  0.37782812  0.26735782  0.45240119    -2.47900
O104        O  0.37557746  0.21992522  0.46096956    -0.80000
O105        O  0.42162315  0.26817200  0.49766101    -0.72200
O106        O  0.33358406  0.21635367  0.49712115    -2.33100
O107        O  0.41859875  0.20983524  0.49906085    -2.29300
O108        O  0.33688810  0.27213271  0.49592184    -0.73900
H109        H  0.38405894  0.28115330  0.06036217     0.78100
H110        H  0.31750473  0.20492656  0.49689904     0.79200
H111        H  0.37768601  0.27818487  0.43408801     0.81400
H112        H  0.43180090  0.19464445  0.49852132     0.79000
H113        H  0.28694405  0.23009521  0.04325316     0.42000
H114        H  0.28242057  0.26295226  0.46483562     0.41000
H115        H  0.30662704  0.24994572  0.39774611     0.40700
H116        H  0.42167235  0.24324165  0.39139745     0.38600
H117        H  0.46079442  0.19885374  0.45001914     0.41700
H118        H  0.46474303  0.19720750  0.03732441     0.36500
H119        H  0.45850850  0.22756357  0.08960277     0.42600
H120        H  0.36295123  0.23771009  0.10743318     0.39100
H121        H  0.44551464  0.22317199  0.40144580     0.44000
H122        H  0.48169607  0.22483498  0.03852216     0.42700
H123        H  0.35593393  0.27012634  0.10587284     0.42800
H124        H  0.27924445  0.23763956  0.44266165     0.43200
O125        O  0.17555991  0.04954209  0.14870201    -0.75700
O126        O  0.15183496  0.01940883  0.11906871    -0.54600
C127        C  0.15307636  0.04022110  0.13687997     0.78100
O128        O  0.27761657  0.06016205  0.06349500    -0.60300
O129        O  0.30768424  0.03848903  0.09519348    -0.53300
C130        C  0.29933816  0.06015680  0.07926762     0.70100
O131        O  0.20189237  0.06227292  0.06280602    -0.74800
O132        O  0.16530716  0.03464382  0.07072153    -0.55400
C133        C  0.17640043  0.05929703  0.06604096     0.76100
O134        O  0.27302840  0.05387002  0.16222356    -0.60000
O135        O  0.29602541  0.01319816  0.16055804    -0.53100
C136        C  0.29573582  0.03970673  0.16344055     0.72700
Zr137      Zr  0.22580425  0.03638185  0.15005505     2.54700
O138        O  0.22327025  0.08749100  0.15693594    -0.80500
O139        O  0.22011229  0.02956661  0.20365076    -0.94000
Zr140      Zr  0.23897080  0.02962725  0.05887442     2.64700
O141        O  0.26740932  0.04831528  0.01894787    -0.98900
O142        O  0.21256481  0.03662249  0.01353834    -0.81000
O143        O  0.20991424  0.03236518  0.10049135    -0.84300
O144        O  0.25511769  0.03445076  0.10853718    -2.19000
O145        O  0.27732581  0.44899534  0.17215889    -0.67700
O146        O  0.30590706  0.46977059  0.13854474    -0.52300
C147        C  0.30133162  0.45454630  0.16171171     0.71000
O148        O  0.19287190  0.42694949  0.09927318    -0.60600
O149        O  0.15562281  0.45220387  0.09062292    -0.52600
C150        C  0.16794889  0.42787229  0.09266797     0.72800
O151        O  0.26868162  0.43157452  0.06083807    -0.72000
O152        O  0.30250400  0.45738817  0.08134584    -0.50700
C153        C  0.29346474  0.43526366  0.06764348     0.74200
O154        O  0.17971134  0.44773712  0.17325416    -0.67400
O155        O  0.14890665  0.47157069  0.14379209    -0.54600
C156        C  0.15501839  0.45471780  0.16514423     0.72600
Zr157      Zr  0.22837281  0.45987748  0.15960740     2.77500
O158        O  0.22707299  0.40926137  0.17055639    -0.98100
O159        O  0.23026749  0.47196850  0.21240633    -0.78900
Zr160      Zr  0.22520865  0.45231219  0.07050702     2.70100
O161        O  0.22798262  0.40415767  0.05103847    -0.80200
O162        O  0.19932997  0.45013217  0.02411118    -0.99300
Zr163      Zr  0.17565771  0.49687806  0.11034884     2.21500
Zr164      Zr  0.28450177  0.99421490  0.11364827     2.11100
O165        O  0.25258146  0.45475996  0.11379317    -2.47900
O166        O  0.20649519  0.46208281  0.11516925    -0.80000
O167        O  0.25366962  0.99536511  0.15548839    -0.72200
O168        O  0.21409197  0.98686277  0.05473365    -2.33100
O169        O  0.20120609  0.50132524  0.15644969    -2.29300
O170        O  0.26744217  0.98924059  0.06435144    -0.73900
H171        H  0.26263606  0.05285260  0.11140328     0.78100
H172        H  0.20451764  0.98442530  0.03612626     0.79200
H173        H  0.26387609  0.43804777  0.11589655     0.81400
H174        H  0.19115018  0.50227572  0.17490211     0.79000
H175        H  0.19449487  0.02847250  0.01704705     0.42000
H176        H  0.20791871  0.43491627  0.01237224     0.41000
H177        H  0.22974398  0.39173868  0.06889871     0.40700
H178        H  0.24372845  0.40144985  0.16142246     0.38600
H179        H  0.21118672  0.47220048  0.21901556     0.41700
H180        H  0.22443598  0.04818653  0.21244491     0.36500
H181        H  0.21679337  0.08997079  0.17767424     0.42600
H182        H  0.25698730  0.06400668  0.00944288     0.39100
H183        H  0.23039355  0.40794332  0.19236951     0.44000
H184        H  0.23545808  0.01711719  0.20962425     0.42700
H185        H  0.26852365  0.03333035  0.00365858     0.42800
H186        H  0.18163707  0.44222795  0.02996442     0.43200
O187        O  0.19858346  0.06436429  0.41776682    -0.75700
O188        O  0.16421056  0.03427337  0.40770227    -0.54600
C189        C  0.17356720  0.05885514  0.41499846     0.78100
O190        O  0.28060787  0.03722093  0.30771814    -0.60300
O191        O  0.31097760  0.00925598  0.33318134    -0.53300
C192        C  0.30499566  0.02767260  0.31330770     0.70100
O193        O  0.18428358  0.03183891  0.31151084    -0.74800
O194        O  0.15852858  0.01256953  0.34838482    -0.55400
C195        C  0.16106080  0.02501189  0.32308877     0.76100
O196        O  0.28225374  0.06434095  0.41124893    -0.60000
O197        O  0.31491592  0.03484702  0.39301734    -0.53100
C198        C  0.30637257  0.05933008  0.40283787     0.72700
Zr199      Zr  0.24074989  0.03968100  0.41511071     2.54700
O200        O  0.24144566  0.09086104  0.42271277    -0.80500
O201        O  0.24660582  0.03870314  0.46905768    -0.94000
Zr202      Zr  0.23336941  0.02613758  0.32620480     2.64700
O203        O  0.22876685  0.07730205  0.31969845    -0.98900
O204        O  0.23267405  0.01785333  0.27262164    -0.81000
O205        O  0.21169533  0.03383484  0.37323337    -0.84300
O206        O  0.26180827  0.03294223  0.36804623    -2.19000
O207        O  0.29017898  0.44201495  0.43970810    -0.67700
O208        O  0.31718323  0.45412194  0.40116811    -0.52300
C209        C  0.30958647  0.43668935  0.42184504     0.71000
O210        O  0.18513735  0.43645251  0.33458239    -0.60600
O211        O  0.15878193  0.46624340  0.36196412    -0.52600
C212        C  0.16140986  0.44638051  0.34313323     0.72800
O213        O  0.28352713  0.43247370  0.32550385    -0.72000
O214        O  0.31560841  0.46031156  0.34737674    -0.50700
C215        C  0.30845587  0.44048828  0.33003407     0.74200
O216        O  0.20846156  0.43317705  0.43608494    -0.67400
O217        O  0.17235493  0.45242487  0.41209158    -0.54600
C218        C  0.18433308  0.43161794  0.42633307     0.72600
Zr219      Zr  0.24623551  0.46384979  0.43294175     2.77500
O220        O  0.24701165  0.42692975  0.47157021    -0.98100
O221        O  0.24778628  0.48952839  0.47983295    -0.78900
Zr222      Zr  0.23603694  0.44537198  0.34307049     2.70100
O223        O  0.23404390  0.39526185  0.35635076    -0.80200
O224        O  0.23286965  0.43411791  0.29013606    -0.99300
Zr225      Zr  0.19009548  0.49574073  0.38571629     2.21500
Zr226      Zr  0.29153276  0.49305484  0.37613415     2.11100
O227        O  0.26453016  0.45255803  0.38533334    -2.47900
O228        O  0.21824795  0.45577059  0.39071714    -0.80000
O229        O  0.27312708  0.50388025  0.42324815    -0.72200
O230        O  0.21083292  0.48768205  0.33777121    -2.33100
O231        O  0.21743820  0.50445745  0.42843082    -2.29300
O232        O  0.26312030  0.48560247  0.33319495    -0.73900
H233        H  0.27231241  0.04912034  0.36227223     0.78100
H234        H  0.19780002  0.48476442  0.32207900     0.79200
H235        H  0.27401658  0.43466278  0.38571301     0.81400
H236        H  0.20674762  0.50811436  0.44601881     0.79000
H237        H  0.24577807  0.00212929  0.26959415     0.42000
H238        H  0.24710805  0.44560368  0.28052259     0.41000
H239        H  0.22298030  0.38676758  0.34033708     0.40700
H240        H  0.26282956  0.43104316  0.48430078     0.38600
H241        H  0.26702701  0.48864626  0.48593668     0.41700
H242        H  0.23481235  0.05424806  0.47622531     0.36500
H243        H  0.24392923  0.09360427  0.44445387     0.42600
H244        H  0.21732396  0.08346305  0.33662606     0.39100
H245        H  0.25168282  0.40890771  0.46158839     0.44000
H246        H  0.26519856  0.04559418  0.47237006     0.42700
H247        H  0.24688915  0.08477044  0.32437960     0.42800
H248        H  0.21572204  0.44310656  0.28337683     0.43200
O249        O  0.02299514  0.07827578  0.16310093    -0.75700
O250        O  0.05683470  0.08890356  0.19607584    -0.54600
C251        C  0.04847704  0.08036722  0.17084507     0.78100
O252        O  0.43876102  0.18553624  0.21081068    -0.60300
O253        O  0.40767334  0.15268162  0.21665792    -0.53300
C254        C  0.41859653  0.17216635  0.20063664     0.70100
O255        O  0.01755220  0.16145340  0.17472501    -0.74800
O256        O  0.05480216  0.13947707  0.19383438    -0.55400
C257        C  0.04185294  0.15201635  0.17216265     0.76100
O258        O  0.42468476  0.07825912  0.17689493    -0.60000
O259        O  0.40124587  0.09870212  0.21501727    -0.53100
C260        C  0.40217520  0.08536916  0.19047706     0.72700
Zr261      Zr  0.47563201  0.08348037  0.18389496     2.54700
O262        O  0.46929990  0.09877950  0.13223738    -0.80500
O263        O  0.47250867  0.03359963  0.17073598    -0.94000
Zr264      Zr  0.48437781  0.16658911  0.21170707     2.64700
O265        O  0.47961795  0.20584313  0.17590412    -0.98900
O266        O  0.50632447  0.20759191  0.23372678    -0.81000
O267        O  0.00397358  0.12522250  0.19903263    -0.84300
O268        O  0.45639262  0.12645078  0.20140633    -2.19000
O269        O  0.43507866  0.04477429  0.27790164    -0.67700
O270        O  0.40662582  0.08199738  0.26682643    -0.52300
C271        C  0.41126627  0.05688703  0.27617445     0.71000
O272        O  0.03411080  0.11261079  0.30805944    -0.60600
O273        O  0.06415687  0.12933571  0.27667544    -0.52600
C274        C  0.05622825  0.12528018  0.30375147     0.72800
O275        O  0.45326875  0.13831571  0.32426581    -0.72000
O276        O  0.41572547  0.13201497  0.29572911    -0.50700
C277        C  0.42786750  0.13512371  0.32105607     0.74200
O278        O  0.03237927  0.04404915  0.27857561    -0.67400
O279        O  0.06170615  0.07195868  0.25254334    -0.54600
C280        C  0.05659039  0.05119161  0.27003279     0.72600
Zr281      Zr  0.48373488  0.05739776  0.26713552     2.77500
O282        O  0.48034532  0.03425347  0.31581629    -0.98100
O283        O  0.48546347  0.01107449  0.24347926    -0.78900
Zr284      Zr  0.49272991  0.13830542  0.29388616     2.70100
O285        O  0.50136324  0.14357726  0.34727019    -0.80200
O286        O  0.50499790  0.18811425  0.29836755    -0.99300
Zr287      Zr  0.03547547  0.11117618  0.23570929     2.21500
Zr288      Zr  0.43380606  0.11792154  0.24700069     2.11100
O289        O  0.46319488  0.09974938  0.28465600    -2.47900
O290        O  0.01334213  0.09659641  0.28015397    -0.80000
O291        O  0.45352116  0.07415455  0.22976508    -0.72200
O292        O  0.01659257  0.15417372  0.25410924    -2.33100
O293        O  0.00693070  0.07126635  0.22471432    -2.29300
O294        O  0.46174503  0.15706439  0.25774476    -0.73900
H295        H  0.44314708  0.12935351  0.18612783     0.78100
H296        H  0.03070531  0.16753852  0.25833475     0.79200
H297        H  0.45371101  0.09324740  0.30215992     0.81400
H298        H  0.01748268  0.05518975  0.21799337     0.79000
H299        H  0.52286334  0.21035800  0.22167603     0.42000
H300        H  0.49313671  0.19580351  0.31421338     0.41000
H301        H  0.51166048  0.16126715  0.34966269     0.40700
H302        H  0.47844818  0.01384920  0.31124397     0.38600
H303        H  0.50384258  0.00366065  0.24792582     0.41700
H304        H  0.99104083  0.03073512  0.16719855     0.36500
H305        H  0.96767828  0.08498584  0.12363045     0.42600
H306        H  0.47098293  0.22147515  0.18716598     0.39100
H307        H  0.49848467  0.03579184  0.32490682     0.44000
H308        H  0.45745749  0.02630284  0.18303791     0.42700
H309        H  0.49818556  0.21250145  0.17197461     0.42800
H310        H  0.52338998  0.18808266  0.30708408     0.43200
O311        O  0.01702873  0.33428064  0.16334990    -0.75700
O312        O  0.05384521  0.34771820  0.18987752    -0.54600
C313        C  0.04132357  0.34310815  0.16490183     0.78100
O314        O  0.43001902  0.42066674  0.18570655    -0.60300
O315        O  0.40519920  0.39232947  0.21660178    -0.53300
C316        C  0.40726615  0.41202497  0.19697978     0.70100
O317        O  0.02483013  0.42202481  0.18827953    -0.74800
O318        O  0.05691821  0.39665921  0.21418730    -0.55400
C319        C  0.04986008  0.41590274  0.19566381     0.76100
O320        O  0.43978955  0.30408966  0.19373768    -0.60000
O321        O  0.40918727  0.33761970  0.20201953    -0.53100
C322        C  0.41942332  0.31860373  0.18493801     0.72700
Zr323      Zr  0.48512713  0.32249192  0.19228931     2.54700
O324        O  0.47318963  0.31034817  0.14120690    -0.80500
O325        O  0.50359166  0.27445881  0.19282127    -0.94000
Zr326      Zr  0.47961422  0.40971948  0.19213455     2.64700
O327        O  0.47314509  0.41349396  0.13823762    -0.98900
O328        O  0.47816408  0.46087168  0.19890328    -0.81000
O329        O  0.00335909  0.36347276  0.19917304    -0.84300
O330        O  0.45808991  0.36463472  0.19457549    -2.19000
O331        O  0.45199023  0.31039207  0.30481393    -0.67700
O332        O  0.41800463  0.33937969  0.28874259    -0.52300
C333        C  0.43008881  0.32438589  0.30925850     0.71000
O334        O  0.03493175  0.40958671  0.30245836    -0.60600
O335        O  0.06239066  0.38986015  0.26748917    -0.52600
C336        C  0.05891884  0.40423607  0.29106989     0.72800
O337        O  0.43815832  0.41817104  0.29614962    -0.72000
O338        O  0.40843552  0.38888963  0.27252936    -0.50700
C339        C  0.41387311  0.40873092  0.29057149     0.74200
O340        O  0.03045164  0.32332468  0.31012222    -0.67400
O341        O  0.06248219  0.33752451  0.27733441    -0.54600
C342        C  0.05429489  0.33192785  0.30405649     0.72600
Zr343      Zr  0.49302335  0.32113978  0.27788712     2.77500
O344        O  0.50415890  0.29658440  0.32476040    -0.98100
O345        O  0.50147937  0.27246115  0.26228231    -0.78900
Zr346      Zr  0.48675608  0.40859473  0.27985228     2.70100
O347        O  0.48862330  0.41353276  0.33392850    -0.80200
O348        O  0.48611916  0.45981486  0.27291687    -0.99300
Zr349      Zr  0.03396182  0.36072163  0.23906664     2.21500
Zr350      Zr  0.43543513  0.36071282  0.24164479     2.11100
O351        O  0.46640356  0.36352272  0.28239273    -2.47900
O352        O  0.01036548  0.35662735  0.28451885    -0.80000
O353        O  0.46139459  0.31808024  0.23832377    -0.72200
O354        O  0.00747821  0.40327231  0.24545954    -2.33100
O355        O  0.01495455  0.31458340  0.23792024    -2.29300
O356        O  0.45681622  0.40618691  0.23871283    -0.73900
H357        H  0.44569047  0.36496299  0.17799265     0.78100
H358        H  0.01850353  0.42003651  0.24610548     0.79200
H359        H  0.45833792  0.36483277  0.30185835     0.81400
H360        H  0.02903080  0.30040402  0.23578938     0.79000
H361        H  0.97166872  0.46496733  0.19288941     0.42000
H362        H  0.46785092  0.46595039  0.27929598     0.41000
H363        H  0.48311549  0.43347161  0.33751460     0.40700
H364        H  0.50074746  0.31037136  0.34091701     0.38600
H365        H  0.51717039  0.26599306  0.27440905     0.41700
H366        H  0.52241262  0.27648770  0.18572894     0.36500
H367        H  0.97131555  0.31823044  0.13523497     0.42600
H368        H  0.48304455  0.39694327  0.13012114     0.39100
H369        H  0.49037552  0.28174413  0.32757534     0.44000
H370        H  0.49418595  0.26522889  0.17602127     0.42700
H371        H  0.45389419  0.40898299  0.13484881     0.42800
H372        H  0.49835198  0.46697114  0.28862653     0.43200
C373        C  0.33219615  0.42798281  0.31464684    -0.06500
C374        C  0.34679705  0.44662465  0.29612389    -0.17600
C375        C  0.37458948  0.44286806  0.29084983     0.10700
C376        C  0.38893792  0.42020783  0.30459909    -0.06400
C377        C  0.37421375  0.40128790  0.32274037    -0.17700
C378        C  0.34622881  0.40466098  0.32740793     0.10700
S379        S  0.39040163  0.46698308  0.26516460    -0.32600
S380        S  0.32928302  0.37830710  0.34955477    -0.32600
H381        H  0.30351697  0.38304871  0.33714043     0.28700
H382        H  0.41620133  0.46520563  0.27819476     0.28700
H383        H  0.33669097  0.46527233  0.28691256     0.19300
H384        H  0.38434235  0.38265394  0.33188797     0.19300
C385        C  0.13473800  0.43545341  0.33077648    -0.06500
C386        C  0.13503180  0.41280550  0.31085736    -0.17600
C387        C  0.11113180  0.40194687  0.29826141     0.10700
C388        C  0.08513701  0.41417616  0.30525757    -0.06400
C389        C  0.08472131  0.43659368  0.32546438    -0.17700
C390        C  0.10866498  0.44752637  0.33808964     0.10700
S391        S  0.11549668  0.37221670  0.27326131    -0.32600
S392        S  0.10438939  0.47738095  0.36304449    -0.32600
H393        H  0.07600999  0.47905552  0.36293931     0.28700
H394        H  0.14133527  0.36356997  0.28313325     0.28700
H395        H  0.15434582  0.40356778  0.30479971     0.19300
H396        H  0.06535939  0.44605512  0.33090254     0.19300
C397        C  0.38621999  0.04304788  0.28625726    -0.06500
C398        C  0.36723427  0.03487723  0.26439388    -0.17600
C399        C  0.33949644  0.03206182  0.27114414     0.10700
C400        C  0.32997921  0.03935547  0.29986864    -0.06400
C401        C  0.34904977  0.04847638  0.32110833    -0.17700
C402        C  0.37667889  0.04909098  0.31510689     0.10700
S403        S  0.31763244  0.01830707  0.24262353    -0.32600
S404        S  0.39883959  0.05811077  0.34541715    -0.32600
H405        H  0.42170689  0.04391923  0.33414305     0.28700
H406        H  0.29375394  0.03079312  0.25344401     0.28700
H407        H  0.37396853  0.03143776  0.24166089     0.19300
H408        H  0.34258801  0.05279792  0.34376031     0.19300
C409        C  0.08149954  0.03714110  0.28228968    -0.06500
C410        C  0.10486456  0.03628922  0.26405244    -0.17600
C411        C  0.13113207  0.03277147  0.27613348     0.10700
C412        C  0.13447136  0.03039435  0.30745519    -0.06400
C413        C  0.11083713  0.02995197  0.32527726    -0.17700
C414        C  0.08484131  0.03258685  0.31317106     0.10700
S415        S  0.16165610  0.52571178  0.25159978    -0.32600
S416        S  0.05688163  0.03216733  0.33877757    -0.32600
H417        H  0.04282367  0.01165896  0.32236294     0.28700
H418        H  0.14577904  0.52013636  0.22622629     0.28700
H419        H  0.10254633  0.03978763  0.24022244     0.19300
H420        H  0.11242144  0.02764635  0.34933097     0.19300
C421        C  0.32659954  0.44365633  0.17621662    -0.06500
C422        C  0.34827022  0.46276430  0.17908498    -0.17600
C423        C  0.37500419  0.45355424  0.18434190     0.10700
C424        C  0.38058421  0.42421815  0.18744402    -0.06400
C425        C  0.35873057  0.40520420  0.18527394    -0.17700
C426        C  0.33211428  0.41451860  0.17995654     0.10700
S427        S  0.40065207  0.48044472  0.18615103    -0.32600
S428        S  0.30635275  0.38814585  0.17634110    -0.32600
H429        H  0.28855978  0.40189930  0.19608337     0.28700
H430        H  0.41705877  0.46681064  0.20759388     0.28700
H431        H  0.34436981  0.48528023  0.17639991     0.19300
H432        H  0.36242370  0.38259437  0.18774780     0.19300
C433        C  0.13037070  0.44307458  0.17929034    -0.06500
C434        C  0.11095572  0.46285110  0.18984962    -0.17600
C435        C  0.08327444  0.45621797  0.19200481     0.10700
C436        C  0.07413932  0.42946313  0.18251141    -0.06400
C437        C  0.09358856  0.41016848  0.17128778    -0.17700
C438        C  0.12125291  0.41616444  0.17083832     0.10700
S439        S  0.06074432  0.48241192  0.20764096    -0.32600
S440        S  0.14406467  0.38843469  0.15926158    -0.32600
H441        H  0.16551981  0.39680034  0.17771087     0.28700
H442        H  0.03805088  0.47419139  0.19100187     0.28700
H443        H  0.11728447  0.48416817  0.19520407     0.19300
H444        H  0.08741328  0.38897576  0.16535291     0.19300
C445        C  0.37479022  0.07688555  0.17911782    -0.06500
C446        C  0.37261573  0.05249320  0.16201291    -0.17600
C447        C  0.34738599  0.04031469  0.15598422     0.10700
C448        C  0.32291839  0.05314886  0.16696091    -0.06400
C449        C  0.32498830  0.07841311  0.18259567    -0.17700
C450        C  0.35019599  0.09024544  0.18886283     0.10700
S451        S  0.34787595  0.00862028  0.13352143    -0.32600
S452        S  0.34890629  0.12285031  0.20918126    -0.32600
H453        H  0.36819432  0.13420072  0.18990978     0.28700
H454        H  0.37558242  0.00209202  0.13608913     0.28700
H455        H  0.39095083  0.04226427  0.15426102     0.19300
H456        H  0.30680520  0.08871216  0.19079081     0.19300
C457        C  0.12565929  0.05288752  0.14269394    -0.06500
C458        C  0.10278163  0.03532491  0.13815608    -0.17600
C459        C  0.07612988  0.04523876  0.14187082     0.10700
C460        C  0.07172855  0.07310920  0.15125819    -0.06400
C461        C  0.09424854  0.09144898  0.15273543    -0.17700
C462        C  0.12097419  0.08171552  0.14880598     0.10700
S463        S  0.04794661  0.02189665  0.13618326    -0.32600
S464        S  0.14857993  0.10620646  0.15230405    -0.32600
H465        H  0.13274369  0.13103016  0.15478655     0.28700
H466        H  0.06305579  0.99839389  0.12616207     0.28700
H467        H  0.10568864  0.01330303  0.13222402     0.19300
H468        H  0.09107669  0.11303829  0.15995049     0.19300
C469        C  0.32591653  0.35162117  0.05537231    -0.06500
C470        C  0.31488896  0.36723545  0.03125732    -0.17600
C471        C  0.30775342  0.39590332  0.03368771     0.10700
C472        C  0.31078606  0.41005863  0.06121681    -0.06400
C473        C  0.32230002  0.39477845  0.08539149    -0.17700
C474        C  0.33020656  0.36595782  0.08270316     0.10700
S475        S  0.29406626  0.41320412  0.00077223    -0.32600
S476        S  0.34475427  0.34891013  0.11525800    -0.32600
H477        H  0.35614960  0.32522222  0.10112027     0.28700
H478        H  0.30096521  0.44089231  0.00919788     0.28700
H479        H  0.31259338  0.35710270  0.00971748     0.19300
H480        H  0.32386633  0.40491214  0.10698277     0.19300
C481        C  0.31119871  0.08908672  0.08271774    -0.06500
C482        C  0.29267833  0.11219191  0.08451840    -0.17600
C483        C  0.30092492  0.14055699  0.08251721     0.10700
C484        C  0.32845764  0.14652693  0.07867661    -0.06400
C485        C  0.34720075  0.12368519  0.08162592    -0.17700
C486        C  0.33896481  0.09520610  0.08303512     0.10700
S487        S  0.27520131  0.16781258  0.08135859    -0.32600
S488        S  0.36480011  0.06808808  0.08179187    -0.32600
H489        H  0.35028918  0.04952560  0.06347070     0.28700
H490        H  0.29036818  0.18732833  0.09785733     0.28700
H491        H  0.27120598  0.10812144  0.08600848     0.19300
H492        H  0.36856549  0.12781200  0.07914786     0.19300
C493        C  0.33073587  0.34741443  0.42859490    -0.06500
C494        C  0.35126175  0.36777593  0.42371857    -0.17600
C495        C  0.34534988  0.39689267  0.41962012     0.10700
C496        C  0.31846620  0.40629690  0.42181909    -0.06400
C497        C  0.29792417  0.38565196  0.42351854    -0.17700
C498        C  0.30373744  0.35651621  0.42667866     0.10700
S499        S  0.37218033  0.42161720  0.41277415    -0.32600
S500        S  0.27661832  0.33158902  0.43070636    -0.32600
H501        H  0.25610589  0.34986942  0.41986451     0.28700
H502        H  0.39073705  0.40115501  0.40232119     0.28700
H503        H  0.37221804  0.36115958  0.42511946     0.19300
H504        H  0.27701199  0.39245936  0.42279406     0.19300
C505        C  0.32349412  0.08499899  0.40515576    -0.06500
C506        C  0.33973825  0.08700700  0.43044156    -0.17600
C507        C  0.34475120  0.11328883  0.44398842     0.10700
C508        C  0.33321875  0.13912745  0.43178457    -0.06400
C509        C  0.31943460  0.13721139  0.40449821    -0.17700
C510        C  0.31464296  0.11071345  0.39116389     0.10700
S511        S  0.36459947  0.11184516  0.47810564    -0.32600
S512        S  0.29435822  0.11073326  0.35770755    -0.32600
H513        H  0.30402910  0.08443273  0.34756476     0.28700
H514        H  0.37577335  0.08454827  0.47430720     0.28700
H515        H  0.34595738  0.06754514  0.44164455     0.19300
H516        H  0.31109191  0.15626105  0.39421066     0.19300
C517        C  0.41878956  0.32441094  0.40493275    -0.06500
C518        C  0.39603904  0.32118343  0.38612260    -0.17600
C519        C  0.39804631  0.32257351  0.35473288     0.10700
C520        C  0.42332450  0.32791617  0.34159844    -0.06400
C521        C  0.44523088  0.33433869  0.36067361    -0.17700
C522        C  0.44351368  0.33176211  0.39180205     0.10700
S523        S  0.36885915  0.31320237  0.33307348    -0.32600
S524        S  0.47426220  0.33480343  0.41324945    -0.32600
H525        H  0.46181179  0.33877479  0.44113788     0.28700
H526        H  0.37283432  0.33369174  0.31064512     0.28700
H527        H  0.37708452  0.31447456  0.39572944     0.19300
H528        H  0.46458408  0.33971378  0.35109913     0.19300
C529        C  0.41897044  0.31435906  0.08942184    -0.06500
C530        C  0.41638162  0.28958818  0.10700889    -0.17600
C531        C  0.41290300  0.29040469  0.13800002     0.10700
C532        C  0.41182413  0.31671129  0.15271413    -0.06400
C533        C  0.41125814  0.34165114  0.13499112    -0.17700
C534        C  0.41507768  0.34076034  0.10368643     0.10700
S535        S  0.41064400  0.25694853  0.15770714    -0.32600
S536        S  0.41597264  0.37397301  0.08359474    -0.32600
H537        H  0.43500261  0.36505306  0.06226924     0.28700
H538        H  0.39621325  0.26775105  0.18224170     0.28700
H539        H  0.41632357  0.26909605  0.09647004     0.19300
H540        H  0.40975082  0.36212868  0.14568318     0.19300
C541        C  0.39719701  0.15478338  0.40532885    -0.06500
C542        C  0.41533074  0.13198668  0.40346224    -0.17600
C543        C  0.42393315  0.12249543  0.37543247     0.10700
C544        C  0.41273984  0.13508036  0.34913083    -0.06400
C545        C  0.39101461  0.15372204  0.35130190    -0.17700
C546        C  0.38383295  0.16465883  0.37898739     0.10700
S547        S  0.45148044  0.09694849  0.37358774    -0.32600
S548        S  0.36136177  0.19492224  0.37883573    -0.32600
H549        H  0.34903330  0.18953844  0.35110793     0.28700
H550        H  0.45208238  0.08988376  0.40418927     0.28700
H551        H  0.42546628  0.12444861  0.42353293     0.19300
H552        H  0.38265040  0.16313691  0.33108677     0.19300
C553        C  0.40711201  0.16908917  0.10438027    -0.06500
C554        C  0.38494556  0.17492816  0.12327191    -0.17600
C555        C  0.38799958  0.17728859  0.15453699     0.10700
C556        C  0.41362607  0.17289495  0.16757336    -0.06400
C557        C  0.43569749  0.16753595  0.14852068    -0.18300
C558        C  0.43269867  0.16527421  0.11754666     0.10700
S559        S  0.36036202  0.19072977  0.17672232    -0.32600
S560        S  0.46226641  0.16079515  0.09437700    -0.32600
H561        H  0.48166482  0.16241401  0.11731089     0.28700
H562        H  0.34022347  0.18733906  0.15481196     0.28700
H563        H  0.36585879  0.18101741  0.11327907     0.19300
H564        H  0.45564452  0.16479946  0.15789298     0.19300
C565        C  0.15594084  0.34448101  0.43226236    -0.06500
C566        C  0.13863301  0.36645579  0.42174750    -0.17600
C567        C  0.14635014  0.39503922  0.42070907     0.10700
C568        C  0.17288339  0.40222045  0.42875311    -0.06400
C569        C  0.19079504  0.37970123  0.43742577    -0.17700
C570        C  0.18246449  0.35137936  0.43989509     0.10700
S571        S  0.12125826  0.42185172  0.41191533    -0.32600
S572        S  0.20502267  0.32471668  0.45535976    -0.32600
H573        H  0.22440649  0.34365372  0.46626518     0.28700
H574        H  0.09876660  0.40392546  0.41047043     0.28700
H575        H  0.11787479  0.36156963  0.41736711     0.19300
H576        H  0.21158397  0.38408415  0.44296653     0.19300
C577        C  0.13948271  0.13989477  0.43614676    -0.06500
C578        C  0.13521515  0.11617292  0.45510095    -0.17600
C579        C  0.14277503  0.08858123  0.44700092     0.10700
C580        C  0.15591843  0.08400060  0.41961948    -0.06400
C581        C  0.15991805  0.10748899  0.40038355    -0.17700
C582        C  0.15141475  0.13508963  0.40800051     0.10700
S583        S  0.13666132  0.06042936  0.47348675    -0.32600
S584        S  0.15616739  0.16296826  0.38084602    -0.32600
H585        H  0.13080524  0.17584751  0.38573375     0.28700
H586        H  0.13257365  0.03943250  0.45188235     0.28700
H587        H  0.12587893  0.11907929  0.47677385     0.19300
H588        H  0.17067149  0.10440051  0.37955804     0.19300
C589        C  0.15568618  0.39961922  0.08610577    -0.06500
C590        C  0.17205179  0.37497522  0.09101111    -0.17600
C591        C  0.16568416  0.34843651  0.07901898     0.10700
C592        C  0.14183900  0.34563189  0.06240041    -0.06400
C593        C  0.12436889  0.36966459  0.05985718    -0.17700
C594        C  0.13071366  0.39613681  0.07168786     0.10700
S595        S  0.19002246  0.32004074  0.08325165    -0.32600
S596        S  0.10646723  0.42448507  0.06650204    -0.32600
H597        H  0.10821036  0.43346845  0.09637223     0.28700
H598        H  0.18865261  0.31152133  0.05322460     0.28700
H599        H  0.19102707  0.37654112  0.10295119     0.19300
H600        H  0.10558936  0.36820901  0.04760833     0.19300
C601        C  0.13441630  0.13967409  0.05337877    -0.06500
C602        C  0.15941478  0.13859416  0.06794459    -0.17600
C603        C  0.17228713  0.11256085  0.07458786     0.10700
C604        C  0.16050387  0.08649969  0.06542584    -0.06400
C605        C  0.13434069  0.08732902  0.05380643    -0.17700
C606        C  0.12095146  0.11336546  0.04819280     0.10700
S607        S  0.20398127  0.11348583  0.09479916    -0.32600
S608        S  0.08683907  0.11192868  0.03379361    -0.32600
H609        H  0.08255722  0.08285406  0.03899762     0.28700
H610        H  0.20165029  0.14163952  0.10475061     0.28700
H611        H  0.16963767  0.15822933  0.07277080     0.19300
H612        H  0.12485470  0.06757364  0.04781621     0.19300
C613        C  0.07621544  0.33946362  0.39283207    -0.06500
C614        C  0.09450135  0.32501055  0.37387575    -0.17600
C615        C  0.09074528  0.32509449  0.34273700     0.10700
C616        C  0.06926809  0.34104200  0.33070138    -0.06400
C617        C  0.05495877  0.35990064  0.34939826    -0.17700
C618        C  0.05817992  0.35921507  0.38032981     0.10700
S619        S  0.11001098  0.30130913  0.31946182    -0.32600
S620        S  0.03562616  0.38022382  0.40285059    -0.32600
H621        H  0.05151747  0.37852570  0.42892759     0.28700
H622        H  0.12905144  0.29330045  0.34145640     0.28700
H623        H  0.10894843  0.31020487  0.38360530     0.19300
H624        H  0.03811156  0.37200428  0.34049454     0.19300
C625        C  0.06054681  0.34105277  0.07351182    -0.06500
C626        C  0.08003781  0.33160225  0.09452832    -0.17600
C627        C  0.07664958  0.33569650  0.12531229     0.10700
C628        C  0.05316007  0.34940219  0.13528089    -0.06400
C629        C  0.03579323  0.36254459  0.11402036    -0.17700
C630        C  0.03897988  0.35808686  0.08331324     0.10700
S631        S  0.10004408  0.31965817  0.15159735    -0.32600
S632        S  0.01309853  0.37130961  0.05826235    -0.32600
H633        H  0.02865438  0.36929040  0.03208743     0.28700
H634        H  0.11840383  0.30907266  0.13036047     0.28700
H635        H  0.09633399  0.31800129  0.08722996     0.19300
H636        H  0.01780472  0.37363402  0.12155352     0.19300
C637        C  0.06625035  0.16709980  0.38665760    -0.06500
C638        C  0.07124386  0.18160296  0.35942623    -0.17600
C639        C  0.07271115  0.16770059  0.33196585     0.10700
C640        C  0.06853037  0.13828883  0.33072744    -0.06400
C641        C  0.06661255  0.12314773  0.35803324    -0.17700
C642        C  0.06568471  0.13704140  0.38592589     0.10700
S643        S  0.07677896  0.18932618  0.29898920    -0.32600
S644        S  0.06224503  0.11601059  0.41962763    -0.32600
H645        H  0.06440127  0.08920979  0.40615960     0.28700
H646        H  0.09495329  0.17028532  0.28541432     0.28700
H647        H  0.07337727  0.20444005  0.35908366     0.19300
H648        H  0.06353547  0.10045191  0.35724673     0.19300
C649        C  0.05273792  0.15302394  0.14123848    -0.06500
C650        C  0.03798137  0.13885070  0.11883678    -0.17600
C651        C  0.04009352  0.14642464  0.08834023     0.10700
C652        C  0.05710117  0.16887167  0.08014718    -0.06400
C653        C  0.07390129  0.18073497  0.10215022    -0.17700
C654        C  0.07205067  0.17299998  0.13236126     0.10700
S655        S  0.01930177  0.12939955  0.06073138    -0.32600
S656        S  0.09242641  0.19189178  0.15878935    -0.32600
H657        H  0.09513479  0.16908195  0.17900478     0.28700
H658        H  0.00730943  0.10975418  0.08033562     0.28700
H659        H  0.02307973  0.12345599  0.12556079     0.19300
H660        H  0.08743220  0.19769172  0.09596450     0.19300
O661        O  0.11572736  0.19065592  0.55664462    -0.75700
O662        O  0.09609782  0.16406142  0.52056781    -0.54600
C663        C  0.10775060  0.16657948  0.54569839     0.78100
O664        O  0.03834389  0.30357168  0.54691011    -0.60300
O665        O  0.07006581  0.33241816  0.52639240    -0.53300
C666        C  0.05256651  0.32626199  0.54660878     0.70100
O667        O  0.03705248  0.21482734  0.55388971    -0.74800
O668        O  0.04933024  0.17640826  0.52667170    -0.55400
C669        C  0.04193018  0.18827037  0.55127858     0.76100
O670        O  0.12841321  0.29061571  0.55990530    -0.60000
O671        O  0.13272925  0.30933147  0.51503676    -0.53100
C672        C  0.13184409  0.31259591  0.54298740     0.72700
Zr673      Zr  0.11775523  0.24192375  0.54042099     2.54700
O674        O  0.11280452  0.23887171  0.59451746    -0.80500
O675        O  0.16636495  0.23472525  0.54512570    -0.94000
Zr676      Zr  0.03859035  0.25682847  0.52320847     2.64700
O677        O  0.00971244  0.25798040  0.56731020    -0.98900
O678        O  0.99381622  0.26212995  0.50121240    -0.81000
O679        O  0.07614982  0.22835353  0.52450832    -0.84300
O680        O  0.08180381  0.27523972  0.53352431    -2.19000
O681        O  0.14831359  0.29312126  0.92741588    -0.67700
O682        O  0.14216409  0.31054519  0.97197990    -0.52300
C683        C  0.14634906  0.31481857  0.94453795     0.71000
O684        O  0.06289722  0.21207068  0.90964139    -0.60600
O685        O  0.06823210  0.17388479  0.93996478    -0.52600
C686        C  0.06627224  0.18531066  0.91371237     0.72800
O687        O  0.05704052  0.30272858  0.91722616    -0.72000
O688        O  0.08338314  0.33243746  0.94455324    -0.50700
C689        C  0.06973439  0.32611626  0.92103014     0.74200
O690        O  0.14299477  0.19374449  0.93044095    -0.67400
O691        O  0.11523115  0.16594988  0.95864210    -0.54600
C692        C  0.13357560  0.16942939  0.93903817     0.72600
Zr693      Zr  0.13728363  0.24429094  0.94589148     2.77500
O694        O  0.14739305  0.23896574  0.89288077    -0.98100
O695        O  0.18514542  0.24213300  0.95845907    -0.78900
Zr696      Zr  0.05559053  0.25474794  0.93803217     2.70100
O697        O  0.04350026  0.26031071  0.88535159    -0.80200
O698        O  0.00673589  0.25046074  0.93891108    -0.99300
Zr699      Zr  0.08594236  0.19652470  0.98529014     2.21500
Zr700      Zr  0.09136749  0.30181767  0.48915497     2.11100
O701        O  0.09886841  0.27517083  0.94169811    -2.47900
O702        O  0.09377315  0.22433769  0.94227403    -0.80000
O703        O  0.13562148  0.27112371  0.99101232    -0.72200
O704        O  0.03839246  0.22672017  0.48007313    -2.33100
O705        O  0.13021303  0.21667320  0.99019372    -2.29300
O706        O  0.04706448  0.28479168  0.48002592    -0.73900
H707        H  0.08185124  0.28513958  0.55217148     0.78100
H708        H  0.02202692  0.21603983  0.47736004     0.79200
H709        H  0.10202578  0.28588681  0.92371175     0.81400
H710        H  0.14411922  0.20221900  0.99190210     0.79000
H711        H  0.99179072  0.28273830  0.49722972     0.42000
H712        H  0.99974586  0.26921904  0.93220684     0.41000
H713        H  0.02524713  0.26909253  0.88486060     0.40700
H714        H  0.12944976  0.23782732  0.88313570     0.38600
H715        H  0.19291801  0.25902093  0.94854117     0.41700
H716        H  0.16835932  0.21553027  0.55407546     0.36500
H717        H  0.12712666  0.25115031  0.60265430     0.42600
H718        H  0.02155964  0.26389993  0.58396259     0.39100
H719        H  0.15469985  0.25737200  0.88608385     0.44000
H720        H  0.17181114  0.24773296  0.56128112     0.42700
H721        H  0.99714710  0.27421619  0.56406442     0.42800
H722        H  0.00254587  0.23746699  0.92227895     0.43200
O723        O  0.40306092  0.20341921  0.57509808    -0.75700
O724        O  0.39288710  0.16558813  0.54625737    -0.54600
C725        C  0.39821942  0.17706350  0.57183288     0.78100
O726        O  0.32192025  0.29563060  0.54915193    -0.60300
O727        O  0.35184764  0.32487261  0.52554227    -0.53300
C728        C  0.33120382  0.32051147  0.54190375     0.70100
O729        O  0.31952594  0.19361478  0.55372923    -0.74800
O730        O  0.35164042  0.16459728  0.03848234    -0.55400
C731        C  0.32733291  0.16786006  0.54672683     0.76100
O732        O  0.43079936  0.28832255  0.55189044    -0.60000
O733        O  0.40019871  0.32080570  0.53877347    -0.53100
C734        C  0.41453320  0.30832281  0.55896766     0.72700
Zr735      Zr  0.41783652  0.23976386  0.54181005     2.54700
O736        O  0.44300420  0.23889929  0.58900767    -0.80500
O737        O  0.46149682  0.21670679  0.53254224    -0.94000
Zr738      Zr  0.33353713  0.24429728  0.54051097     2.64700
O739        O  0.32903174  0.24637824  0.59465662    -0.98900
O740        O  0.28474589  0.24602428  0.53358101    -0.81000
O741        O  0.37460900  0.21828845  0.54233278    -0.84300
O742        O  0.37645277  0.26680169  0.54115444    -2.19000
O743        O  0.42710722  0.28511982  0.93272361    -0.67700
O744        O  0.40055588  0.31941396  0.95247320    -0.52300
C745        C  0.41246366  0.30758748  0.93014499     0.71000
O746        O  0.32229123  0.19234640  0.94886886    -0.60600
O747        O  0.34613112  0.16154438  0.97889000    -0.52600
C748        C  0.32879315  0.16680327  0.95839509     0.72800
O749        O  0.32637834  0.29422735  0.94302571    -0.72000
O750        O  0.35369169  0.32443122  0.96846509    -0.50700
C751        C  0.33566928  0.31943984  0.94886235     0.74200
O752        O  0.40182375  0.19779095  0.92563335    -0.67400
O753        O  0.39179749  0.16246543  0.95840373    -0.54600
C754        C  0.39485314  0.17228837  0.93138574     0.72600
Zr755      Zr  0.41633976  0.23857586  0.95292889     2.77500
O756        O  0.43366825  0.24017152  0.90181211    -0.98100
O757        O  0.46187079  0.21915389  0.95893968    -0.78900
Zr758      Zr  0.33352155  0.24370067  0.96161199     2.70100
O759        O  0.31731321  0.24390996  0.91018479    -0.80200
O760        O  0.28707459  0.24680934  0.97915977    -0.99300
Zr761      Zr  0.37803686  0.18974203  0.00374598     2.21500
Zr762      Zr  0.38317237  0.29630212  0.99783367     2.11100
O763        O  0.37597753  0.26622207  0.95597083    -2.47900
O764        O  0.37387806  0.21669514  0.95928950    -0.80000
O765        O  0.42424798  0.26957647  0.99379952    -0.72200
O766        O  0.33702854  0.21748370  0.00688727    -2.33100
O767        O  0.42116240  0.21060288  0.99719148    -2.29300
O768        O  0.33997219  0.27374558  0.00340376    -0.73900
H769        H  0.37458690  0.27838359  0.55857265     0.78100
H770        H  0.32144586  0.20550927  0.00924559     0.79200
H771        H  0.37361299  0.27662350  0.93761926     0.81400
H772        H  0.43422122  0.19533408  0.99579386     0.79000
H773        H  0.27738216  0.24729307  0.55408493     0.42000
H774        H  0.28309675  0.26741887  0.97999068     0.41000
H775        H  0.33054866  0.25551660  0.89906275     0.40700
H776        H  0.41850239  0.23465958  0.88869100     0.38600
H777        H  0.46172987  0.20098855  0.94796736     0.41700
H778        H  0.45944347  0.19700151  0.53991439     0.36500
H779        H  0.45534389  0.25526175  0.58841079     0.42600
H780        H  0.33732668  0.22843311  0.60203711     0.39100
H781        H  0.44668012  0.22415073  0.90040458     0.44000
H782        H  0.47441038  0.22499437  0.54673389     0.42700
H783        H  0.34180294  0.26125339  0.60089077     0.42800
H784        H  0.27611737  0.23995421  0.96219187     0.43200
O785        O  0.17033334  0.05683832  0.64351428    -0.75700
O786        O  0.14556956  0.01743951  0.64036719    -0.54600
C787        C  0.14709301  0.04393636  0.64416916     0.78100
O788        O  0.25282470  0.05882081  0.53984481    -0.60300
O789        O  0.28773554  0.03591999  0.56314108    -0.53300
C790        C  0.27712622  0.05784046  0.54959694     0.70100
O791        O  0.17304636  0.06048852  0.56131075    -0.74800
O792        O  0.13959662  0.03339995  0.58009438    -0.55400
C793        C  0.14938592  0.05749260  0.57179188     0.76100
O794        O  0.26888423  0.04982559  0.64824577    -0.60000
O795        O  0.29563549  0.02311933  0.61824064    -0.53100
C796        C  0.29261717  0.04178444  0.63803946     0.72700
Zr797      Zr  0.21883288  0.03797507  0.63991439     2.54700
O798        O  0.22174972  0.08836385  0.65086467    -0.80500
O799        O  0.21639377  0.02929118  0.69359492    -0.94000
Zr800      Zr  0.21210795  0.03303587  0.54961084     2.64700
O801        O  0.20840003  0.07642276  0.51949430    -0.98900
O802        O  0.19929159  0.01734714  0.50004549    -0.81000
O803        O  0.19532022  0.02982023  0.59676528    -0.84300
O804        O  0.24008481  0.03706518  0.59274482    -2.19000
O805        O  0.26538674  0.43872195  0.65237949    -0.67700
O806        O  0.29394929  0.46552114  0.62397838    -0.52300
C807        C  0.28935896  0.44727560  0.64464751     0.71000
O808        O  0.17573359  0.42461670  0.55887683    -0.60600
O809        O  0.14110744  0.45280059  0.57411774    -0.52600
C810        C  0.15110046  0.42854529  0.56608777     0.72800
O811        O  0.25636516  0.43072488  0.54049939    -0.72000
O812        O  0.29058595  0.45356614  0.56335227    -0.50700
C813        C  0.28096288  0.43191295  0.54942057     0.74200
O814        O  0.16906736  0.43670034  0.65288941    -0.67400
O815        O  0.13993304  0.46482629  0.62627644    -0.54600
C816        C  0.14489700  0.44592711  0.64586392     0.72600
Zr817      Zr  0.21693609  0.44898779  0.63799983     2.77500
O818        O  0.21746693  0.39759595  0.63264437    -0.98100
O819        O  0.21753110  0.44623651  0.69237324    -0.78900
Zr820      Zr  0.21335524  0.45413495  0.54804094     2.70100
O821        O  0.21155624  0.41042040  0.51929622    -0.80200
O822        O  0.19696789  0.46771446  0.49856811    -0.99300
Zr823      Zr  0.16554810  0.49363595  0.59566765     2.21500
Zr824      Zr  0.26723939  0.99501231  0.59008829     2.11100
O825        O  0.24045876  0.45038273  0.59196760    -2.47900
O826        O  0.19447919  0.45683923  0.59411605    -0.80000
O827        O  0.24613008  0.99638116  0.63868979    -0.72200
O828        O  0.18509914  0.99169055  0.55167334    -2.33100
O829        O  0.19088327  0.49125985  0.64171045    -2.29300
O830        O  0.24128112  0.99279299  0.54556287    -0.73900
H831        H  0.24977669  0.05462156  0.59357129     0.78100
H832        H  0.17077484  0.99094118  0.53701731     0.79200
H833        H  0.25117301  0.43323742  0.59314210     0.81400
H834        H  0.17961687  0.49063996  0.65929136     0.79000
H835        H  0.18070675  0.02474037  0.49697901     0.42000
H836        H  0.20830441  0.45683491  0.48466647     0.41000
H837        H  0.21451966  0.39484816  0.53397535     0.40700
H838        H  0.20709274  0.39417038  0.61409323     0.38600
H839        H  0.23088649  0.46056376  0.69853301     0.41700
H840        H  0.20644241  0.04594098  0.70149906     0.36500
H841        H  0.23501735  0.09579880  0.63632790     0.42600
H842        H  0.20654913  0.09223600  0.53381091     0.39100
H843        H  0.23637012  0.39274955  0.62737990     0.44000
H844        H  0.23516080  0.03164458  0.70081096     0.42700
H845        H  0.19072896  0.07563651  0.50912394     0.42800
H846        H  0.17900031  0.45878807  0.49695072     0.43200
O847        O  0.18426488  0.06361132  0.88535566    -0.75700
O848        O  0.15233742  0.03436493  0.90147494    -0.54600
C849        C  0.16126277  0.05959192  0.89713850     0.78100
O850        O  0.27935147  0.02323940  0.80687388    -0.60300
O851        O  0.30617917  0.01321975  0.84711381    -0.53300
C852        C  0.30303057  0.01988168  0.81965657     0.70100
O853        O  0.18138645  0.02929460  0.80309999    -0.74800
O854        O  0.15138249  0.01340502  0.83803991    -0.55400
C855        C  0.15689641  0.02416780  0.81259470     0.76100
O856        O  0.26790488  0.06862799  0.90881515    -0.60000
O857        O  0.30089386  0.03452663  0.90777630    -0.53100
C858        C  0.29234236  0.06049322  0.91197344     0.72700
Zr859      Zr  0.22562155  0.04533863  0.90714855     2.54700
O860        O  0.22176153  0.09664704  0.91257577    -0.80500
O861        O  0.21927963  0.05582039  0.95944605    -0.94000
Zr862      Zr  0.22963078  0.02258333  0.82181429     2.64700
O863        O  0.23209536  0.07296401  0.80977574    -0.98900
O864        O  0.23115112  0.01050064  0.76906092    -0.81000
O865        O  0.20185326  0.03425295  0.86319028    -0.84300
O866        O  0.25385453  0.03362890  0.86622837    -2.19000
O867        O  0.27116946  0.43001345  0.93135471    -0.67700
O868        O  0.30346085  0.45234631  0.90434719    -0.52300
C869        C  0.29447990  0.43072349  0.91940276     0.71000
O870        O  0.17345755  0.43958231  0.82821315    -0.60600
O871        O  0.14573612  0.46691936  0.85722192    -0.52600
C872        C  0.14950791  0.44807914  0.83735451     0.72800
O873        O  0.27151589  0.43896105  0.82183838    -0.72000
O874        O  0.30264083  0.46501351  0.84766091    -0.50700
C875        C  0.29618065  0.44680027  0.82806769     0.74200
O876        O  0.18869449  0.42783568  0.92666161    -0.67400
O877        O  0.15280447  0.45510249  0.91251654    -0.54600
C878        C  0.16360202  0.43126915  0.92101260     0.72600
Zr879      Zr  0.22927962  0.45512655  0.92918875     2.77500
O880        O  0.23126144  0.41195698  0.95991404    -0.98100
O881        O  0.23276723  0.47159771  0.98015459    -0.78900
Zr882      Zr  0.22349656  0.44959729  0.83863099     2.70100
O883        O  0.22318810  0.39806428  0.84300268    -0.80200
O884        O  0.22135867  0.44820873  0.78428872    -0.99300
Zr885      Zr  0.17529541  0.49452413  0.88612382     2.21500
Zr886      Zr  0.27807063  0.49338075  0.88126232     2.11100
O887        O  0.25101605  0.45186408  0.88210275    -2.47900
O888        O  0.20201450  0.45270093  0.88571584    -0.80000
O889        O  0.25640763  0.49634093  0.92805153    -0.72200
O890        O  0.19754035  0.49171444  0.83842087    -2.33100
O891        O  0.20149678  0.49624840  0.93070634    -2.29300
O892        O  0.25069665  0.49075804  0.83659768    -0.73900
H893        H  0.26589377  0.04878347  0.86080408     0.78100
H894        H  0.18481470  0.49090607  0.82208579     0.79200
H895        H  0.26129515  0.43460064  0.87979336     0.81400
H896        H  0.19055181  0.49625191  0.94856271     0.79000
H897        H  0.22808895  0.98978419  0.76869666     0.42000
H898        H  0.20534109  0.45995881  0.77892296     0.41000
H899        H  0.23461269  0.39366927  0.86067534     0.40700
H900        H  0.23128922  0.39605842  0.94556739     0.38600
H901        H  0.25209747  0.46900876  0.98539301     0.41700
H902        H  0.20221771  0.06676566  0.96042457     0.36500
H903        H  0.22345438  0.10430297  0.89199397     0.42600
H904        H  0.25134746  0.07776518  0.81270573     0.39100
H905        H  0.21371799  0.41037285  0.97027278     0.44000
H906        H  0.23339968  0.06991050  0.96385003     0.42700
H907        H  0.22937851  0.07394897  0.78785427     0.42800
H908        H  0.21596784  0.42854360  0.77971315     0.43200
O909        O  0.01590121  0.08008343  0.66707457    -0.75700
O910        O  0.04773494  0.09898275  0.69785922    -0.54600
C911        C  0.04093223  0.08642099  0.67399048     0.78100
O912        O  0.42203419  0.17985744  0.70838950    -0.60300
O913        O  0.39465016  0.14333784  0.71309953    -0.53300
C914        C  0.40384328  0.16399795  0.69739238     0.70100
O915        O  0.00053100  0.16553618  0.67480111    -0.74800
O916        O  0.03971670  0.14795298  0.69428975    -0.55400
C917        C  0.02557460  0.15842653  0.67239678     0.76100
O918        O  0.41970496  0.07645106  0.67318524    -0.60000
O919        O  0.39449805  0.09119924  0.71257525    -0.53100
C920        C  0.39654841  0.08040561  0.68690405     0.72700
Zr921      Zr  0.47008475  0.08449049  0.68303254     2.54700
O922        O  0.46481307  0.09775471  0.63059227    -0.80500
O923        O  0.47093445  0.03419927  0.67088065    -0.94000
Zr924      Zr  0.47005254  0.16792954  0.71199126     2.64700
O925        O  0.46683669  0.20992168  0.67934333    -0.98900
O926        O  0.48535499  0.20989696  0.73834827    -0.81000
O927        O  0.99065436  0.12783357  0.69972868    -0.84300
O928        O  0.44676916  0.12498322  0.70067605    -2.19000
O929        O  0.43160385  0.03933549  0.77413051    -0.67700
O930        O  0.40034029  0.07405092  0.76391183    -0.52300
C931        C  0.40683714  0.04899075  0.77207058     0.71000
O932        O  0.02303994  0.12671068  0.81326567    -0.60600
O933        O  0.05126422  0.13926580  0.77648823    -0.52600
C934        C  0.04586854  0.13590152  0.80443840     0.72800
O935        O  0.43849897  0.13530208  0.82300456    -0.72000
O936        O  0.40232543  0.12687127  0.79305743    -0.50700
C937        C  0.41331013  0.13119141  0.81884159     0.74200
O938        O  0.02873260  0.04942122  0.77808916    -0.67400
O939        O  0.05308213  0.08269412  0.75316072    -0.54600
C940        C  0.05149564  0.05980245  0.76838230     0.72600
Zr941      Zr  0.47888057  0.05780062  0.76601533     2.77500
O942        O  0.48090210  0.03966589  0.81708592    -0.98100
O943        O  0.48317441  0.01018195  0.74580353    -0.78900
Zr944      Zr  0.47905315  0.13875332  0.79411447     2.70100
O945        O  0.48457375  0.14604348  0.84761147    -0.80200
O946        O  0.49139588  0.18790336  0.80321355    -0.99300
Zr947      Zr  0.02322592  0.11896462  0.73684994     2.21500
Zr948      Zr  0.42387148  0.11335468  0.74554188     2.11100
O949        O  0.45354509  0.09741342  0.78396070    -2.47900
O950        O  0.00372949  0.10388499  0.78250041    -0.80000
O951        O  0.44806638  0.07208914  0.72814034    -0.72200
O952        O  0.00040851  0.16036361  0.75343286    -2.33100
O953        O  0.99986659  0.07520856  0.72859293    -2.29300
O954        O  0.44753355  0.15528666  0.75734581    -0.73900
H955        H  0.43440092  0.12660443  0.68439659     0.78100
H956        H  0.01325198  0.17530171  0.75673175     0.79200
H957        H  0.44396305  0.09020143  0.80109625     0.81400
H958        H  0.01210187  0.06033465  0.72229733     0.79000
H959        H  0.50211135  0.21555532  0.72792632     0.42000
H960        H  0.47752556  0.19521256  0.81716924     0.41000
H961        H  0.48282851  0.12689736  0.85663452     0.40700
H962        H  0.49369155  0.05237069  0.82732580     0.38600
H963        H  0.46604860  0.00722362  0.73482498     0.41700
H964        H  0.96445056  0.03202915  0.65995428     0.36500
H965        H  0.94335861  0.10121368  0.63471142     0.42600
H966        H  0.47081572  0.20421318  0.65857903     0.39100
H967        H  0.46310245  0.04460365  0.82575414     0.44000
H968        H  0.47547902  0.03370427  0.64934945     0.42700
H969        H  0.44766439  0.21607223  0.67901336     0.42800
H970        H  0.50824383  0.18680070  0.81517513     0.43200
O971        O  0.00652777  0.33159055  0.66562699    -0.75700
O972        O  0.04304857  0.34597347  0.69197373    -0.54600
C973        C  0.03102491  0.33984886  0.66709327     0.78100
O974        O  0.41713413  0.41555431  0.68033918    -0.60300
O975        O  0.39024823  0.38869676  0.71056057    -0.53300
C976        C  0.39363272  0.40728665  0.68995237     0.70100
O977        O  0.01560120  0.41683334  0.67537565    -0.74800
O978        O  0.04624565  0.39593124  0.70701101    -0.55400
C979        C  0.04015621  0.41066386  0.68411653     0.76100
O980        O  0.42317444  0.30108334  0.69546225    -0.60000
O981        O  0.39351526  0.33593533  0.70178747    -0.53100
C982        C  0.40344347  0.31606143  0.68570042     0.72700
Zr983      Zr  0.46947286  0.31705560  0.69383418     2.54700
O984        O  0.45891576  0.29837810  0.64461256    -0.80500
O985        O  0.48999336  0.27028331  0.70024218    -0.94000
Zr986      Zr  0.46643109  0.40495648  0.69024091     2.64700
O987        O  0.46392305  0.40293921  0.63588504    -0.98900
O988        O  0.46274407  0.45650470  0.69138001    -0.81000
O989        O  0.99278033  0.36506375  0.69699466    -0.84300
O990        O  0.44397727  0.36046471  0.69373913    -2.19000
O991        O  0.43420523  0.31446163  0.80743301    -0.67700
O992        O  0.39929603  0.33807644  0.78461367    -0.52300
C993        C  0.41009438  0.32449569  0.80691940     0.71000
O994        O  0.02224897  0.42209033  0.79447649    -0.60600
O995        O  0.05060849  0.39772511  0.76355230    -0.52600
C996        C  0.04628368  0.41583846  0.78401863     0.72800
O997        O  0.42519663  0.41882234  0.79387764    -0.72000
O998        O  0.39479891  0.39109147  0.76924848    -0.50700
C999        C  0.40070237  0.41050751  0.78759940     0.74200
O1000       O  0.01547054  0.33841662  0.81290042    -0.67400
O1001       O  0.04916841  0.34747071  0.78002495    -0.54600
C1002       C  0.04007633  0.34443943  0.80682965     0.72600
Zr1003     Zr  0.47567420  0.31937089  0.77984866     2.77500
O1004       O  0.48293483  0.29696374  0.82866799    -0.98100
O1005       O  0.48332433  0.26940817  0.76890946    -0.78900
Zr1006     Zr  0.47328747  0.40638404  0.77849311     2.70100
O1007       O  0.47606258  0.40812877  0.83279941    -0.80200
O1008       O  0.47375287  0.45791966  0.77482795    -0.99300
Zr1009     Zr  0.02218548  0.36593327  0.73802505     2.21500
Zr1010     Zr  0.42018786  0.35982443  0.74004046     2.11100
O1011       O  0.45006321  0.36264668  0.78173346    -2.47900
O1012       O  0.99427990  0.36796484  0.77743435    -0.80000
O1013       O  0.44474767  0.31605844  0.73948703    -0.72200
O1014       O  0.99708861  0.40999202  0.73747565    -2.33100
O1015       O  0.00163034  0.32077100  0.74180907    -2.29300
O1016       O  0.44341169  0.40433561  0.73678445    -0.73900
H1017       H  0.43203162  0.36051881  0.67679980     0.78100
H1018       H  0.00873412  0.42626785  0.73610356     0.79200
H1019       H  0.44082925  0.36468223  0.80050137     0.81400
H1020       H  0.01506332  0.30575629  0.74227897     0.79000
H1021       H  0.95986066  0.46499043  0.71454210     0.42000
H1022       H  0.47974518  0.46420673  0.79481976     0.41000
H1023       H  0.47032824  0.38909153  0.83962979     0.40700
H1024       H  0.47570162  0.31062011  0.84343070     0.38600
H1025       H  0.50178422  0.26527971  0.77648170     0.41700
H1026       H  0.49705945  0.26511013  0.68031446     0.36500
H1027       H  0.96009660  0.31624381  0.63787571     0.42600
H1028       H  0.44690696  0.41299436  0.63053940     0.39100
H1029       H  0.47051849  0.28064334  0.82953409     0.44000
H1030       H  0.47428067  0.25786439  0.70344692     0.42700
H1031       H  0.47833143  0.41570059  0.62873515     0.42800
H1032       H  0.48919756  0.46211194  0.76155006     0.43200
C1033       C  0.32033857  0.43501388  0.81282374    -0.06500
C1034       C  0.33688407  0.45438784  0.79730696    -0.17600
C1035       C  0.36416504  0.44823199  0.79087907     0.10700
C1036       C  0.37602621  0.42267599  0.80138938    -0.06400
C1037       C  0.35946627  0.40344097  0.81697149    -0.17700
C1038       C  0.33205104  0.40912988  0.82249207     0.10700
S1039       S  0.38266744  0.47381280  0.76915786    -0.32600
S1040       S  0.31335394  0.38285251  0.84300300    -0.32600
H1041       H  0.28841356  0.38878630  0.82915231     0.28700
H1042       H  0.40037174  0.45484425  0.75489508     0.28700
H1043       H  0.32860239  0.47491266  0.79082847     0.19300
H1044       H  0.36764371  0.38294479  0.82357266     0.19300
C1045       C  0.12352402  0.43760385  0.82394404    -0.06500
C1046       C  0.12074626  0.43661036  0.79282526    -0.17600
C1047       C  0.09533581  0.43228796  0.77919054     0.10700
C1048       C  0.07175737  0.42795165  0.79689623    -0.06400
C1049       C  0.07438500  0.42977336  0.82784560    -0.17700
C1050       C  0.09961206  0.43444746  0.84151348     0.10700
S1051       S  0.09317069  0.43395433  0.73896060    -0.32600
S1052       S  0.10051567  0.43560562  0.88179113    -0.32600
H1053       H  0.07360983  0.42784979  0.88718240     0.28700
H1054       H  0.12006270  0.44173526  0.73335328     0.28700
H1055       H  0.13836881  0.44043958  0.77914609     0.19300
H1056       H  0.05664971  0.42645447  0.84146109     0.19300
C1057       C  0.38268808  0.03200114  0.78001693    -0.06500
C1058       C  0.35918221  0.03588344  0.76220450    -0.17600
C1059       C  0.33301064  0.03106074  0.77337361     0.10700
C1060       C  0.32974086  0.02275136  0.80353073    -0.06400
C1061       C  0.35370733  0.01616676  0.82006984    -0.17700
C1062       C  0.37966453  0.02020992  0.80860180     0.10700
S1063       S  0.30496447  0.03676558  0.74834443    -0.32600
S1064       S  0.40809468  0.01199493  0.83240386    -0.32600
H1065       H  0.42302086  0.99882273  0.80956297     0.28700
H1066       H  0.29358826  0.01014403  0.75462056     0.28700
H1067       H  0.36121658  0.04428870  0.73973230     0.19300
H1068       H  0.35261628  0.00807184  0.84273647     0.19300
C1069       C  0.07883288  0.04665522  0.77525097    -0.06500
C1070       C  0.10217524  0.06267960  0.76780238    -0.17600
C1071       C  0.12834370  0.05490574  0.77730316     0.10700
C1072       C  0.13198389  0.03014580  0.79444976    -0.06400
C1073       C  0.10925117  0.01256008  0.79927322    -0.17700
C1074       C  0.08305652  0.02032557  0.78981725     0.10700
S1075       S  0.14668195  0.60027291  0.80827474    -0.32600
S1076       S  0.05620666  0.99582402  0.79740154    -0.32600
H1077       H  0.04440244  0.99892906  0.76890682     0.28700
H1078       H  0.13139321  0.62312410  0.79656961     0.28700
H1079       H  0.10005495  0.08236417  0.75542537     0.19300
H1080       H  0.11173361  0.99283377  0.81164277     0.19300
C1081       C  0.31436094  0.43605179  0.65969203    -0.06500
C1082       C  0.33362592  0.45569980  0.66971854    -0.17600
C1083       C  0.36018057  0.44743253  0.67747359     0.10700
C1084       C  0.36782251  0.41851985  0.67662969    -0.06400
C1085       C  0.34818045  0.39871613  0.66773797    -0.17700
C1086       C  0.32191870  0.40716826  0.65873171     0.10700
S1087       S  0.38306392  0.47456511  0.68929177    -0.32600
S1088       S  0.29869119  0.38118252  0.64461877    -0.32600
H1089       H  0.31640813  0.35769954  0.64655124     0.28700
H1090       H  0.40381382  0.46600969  0.66985918     0.28700
H1091       H  0.32810537  0.47797006  0.67065420     0.19300
H1092       H  0.35350520  0.37639396  0.66783226     0.19300
C1093       C  0.11942654  0.43596367  0.65975957    -0.06500
C1094       C  0.09817878  0.45637166  0.66189405    -0.17600
C1095       C  0.07115379  0.44868135  0.66603449     0.10700
C1096       C  0.06476905  0.41992400  0.66839469    -0.06400
C1097       C  0.08594182  0.39954274  0.66625025    -0.17700
C1098       C  0.11302333  0.40722467  0.66314066     0.10700
S1099       S  0.04546824  0.47571687  0.67067462    -0.32600
S1100       S  0.13830548  0.37964409  0.66562014    -0.32600
H1101       H  0.15542864  0.39515841  0.68438482     0.28700
H1102       H  0.06024031  0.49765682  0.65719614     0.28700
H1103       H  0.10280236  0.47870245  0.65982230     0.19300
H1104       H  0.08165320  0.37736707  0.66992716     0.19300
C1105       C  0.36962134  0.07238942  0.67360404    -0.06500
C1106       C  0.36920452  0.05548931  0.64827700    -0.17600
C1107       C  0.34492939  0.04552668  0.63607249     0.10700
C1108       C  0.31924971  0.05331562  0.64908985    -0.06400
C1109       C  0.31962383  0.07096520  0.67393373    -0.17700
C1110       C  0.34401305  0.08046129  0.68652585     0.10700
S1111       S  0.34859728  0.02249029  0.60396175    -0.32600
S1112       S  0.34087715  0.10275177  0.71932897    -0.32600
H1113       H  0.31253641  0.10402753  0.72111283     0.28700
H1114       H  0.37649870  0.01690021  0.60620621     0.28700
H1115       H  0.38828091  0.04951077  0.63824869     0.19300
H1116       H  0.30054320  0.07681863  0.68401655     0.19300
C1117       C  0.11964826  0.05828332  0.64707279    -0.06500
C1118       C  0.09643393  0.04201396  0.63966095    -0.17600
C1119       C  0.06982781  0.05199049  0.64370369     0.10700
C1120       C  0.06539588  0.07909095  0.65554858    -0.06400
C1121       C  0.08830949  0.09680660  0.65884441    -0.17700
C1122       C  0.11503086  0.08656216  0.65586315     0.10700
S1123       S  0.04251966  0.02848383  0.63515908    -0.32600
S1124       S  0.14188196  0.10982333  0.66654081    -0.32600
H1125       H  0.15467036  0.08950786  0.68511560     0.28700
H1126       H  0.02618251  0.04997628  0.62235734     0.28700
H1127       H  0.09873982  0.02067179  0.63118705     0.19300
H1128       H  0.08549261  0.11815432  0.66720405     0.19300
C1129       C  0.31641299  0.34695340  0.54959521    -0.06500
C1130       C  0.33045948  0.36924057  0.56332838    -0.17600
C1131       C  0.32070757  0.39749330  0.56251258     0.10700
C1132       C  0.29635675  0.40416393  0.54696661    -0.06400
C1133       C  0.28270641  0.38139603  0.53315279    -0.17700
C1134       C  0.29195292  0.35325057  0.53502530     0.10700
S1135       S  0.34063247  0.42366153  0.58134232    -0.32600
S1136       S  0.27308582  0.32569679  0.51678597    -0.32600
H1137       H  0.24824990  0.34049874  0.51630195     0.28700
H1138       H  0.33991337  0.44287674  0.55712346     0.28700
H1139       H  0.34974919  0.36469621  0.57386709     0.19300
H1140       H  0.26421202  0.38533887  0.52083727     0.19300
C1141       C  0.29079684  0.08599532  0.55037861    -0.06500
C1142       C  0.27449341  0.11062540  0.55470180    -0.17600
C1143       C  0.28559163  0.13799017  0.55702048     0.10700
C1144       C  0.31381341  0.14103079  0.55657338    -0.06400
C1145       C  0.32995736  0.11589275  0.55564005    -0.17700
C1146       C  0.31891506  0.08913045  0.55046164     0.10700
S1147       S  0.26358882  0.16869835  0.55911118    -0.32600
S1148       S  0.34161072  0.06091335  0.53974980    -0.32600
H1149       H  0.32345527  0.04813429  0.51982139     0.28700
H1150       H  0.23908614  0.15423780  0.55550399     0.28700
H1151       H  0.25277530  0.10853097  0.55594325     0.19300
H1152       H  0.35179186  0.11749461  0.55519002     0.19300
C1153       C  0.32618035  0.34585681  0.93301585    -0.06500
C1154       C  0.34432706  0.36904125  0.93149428    -0.17600
C1155       C  0.33546586  0.39705013  0.92599878     0.10700
C1156       C  0.30801477  0.40220495  0.92005589    -0.06400
C1157       C  0.29074302  0.37847155  0.91732626    -0.17700
C1158       C  0.29918179  0.35070478  0.92453915     0.10700
S1159       S  0.35953062  0.42517104  0.92953490    -0.32600
S1160       S  0.27466158  0.32258011  0.92566722    -0.32600
H1161       H  0.25181848  0.33925618  0.91830303     0.28700
H1162       H  0.34190029  0.44366134  0.94470000     0.28700
H1163       H  0.36541221  0.36572605  0.93717647     0.19300
H1164       H  0.26981451  0.38198239  0.91111758     0.19300
C1165       C  0.30952915  0.08392581  0.92298436    -0.06500
C1166       C  0.30684154  0.08992870  0.95351225    -0.17600
C1167       C  0.31033162  0.11746252  0.96473595     0.10700
C1168       C  0.31742493  0.14020028  0.94539034    -0.06400
C1169       C  0.32058451  0.13422695  0.91485137    -0.17700
C1170       C  0.31672861  0.10658679  0.90358221     0.10700
S1171       S  0.30372415  0.12374969  0.00385915    -0.32600
S1172       S  0.32028689  0.10156173  0.86388263    -0.32600
H1173       H  0.32404952  0.07196272  0.86532854     0.28700
H1174       H  0.30435301  0.09514586  0.01304581     0.28700
H1175       H  0.29949593  0.07342612  0.96829832     0.19300
H1176       H  0.32665233  0.15098054  0.89974493     0.19300
C1177       C  0.40514840  0.31610471  0.89904618    -0.06500
C1178       C  0.39436210  0.29468824  0.88085367    -0.17600
C1179       C  0.39061873  0.29849978  0.85011902     0.10700
C1180       C  0.39742244  0.32445626  0.83671238    -0.06400
C1181       C  0.40477001  0.34716029  0.85544810    -0.17700
C1182       C  0.40901364  0.34322535  0.88637277     0.10700
S1183       S  0.38014011  0.26843140  0.82850836    -0.32600
S1184       S  0.42190949  0.37267007  0.90734431    -0.32600
H1185       H  0.43621102  0.35650559  0.92875523     0.28700
H1186       H  0.37277556  0.28416218  0.80284871     0.28700
H1187       H  0.38994691  0.27411042  0.89035026     0.19300
H1188       H  0.41075182  0.36712612  0.84541902     0.19300
C1189       C  0.40759590  0.31189543  0.59118661    -0.06500
C1190       C  0.40304374  0.28709967  0.60812754    -0.17600
C1191       C  0.39781188  0.28787556  0.63875571     0.10700
C1192       C  0.39670879  0.31418263  0.65340039    -0.06400
C1193       C  0.39732417  0.33917389  0.63583396    -0.17700
C1194       C  0.40345717  0.33834413  0.60513021     0.10700
S1195       S  0.39390905  0.25444730  0.65816145    -0.32600
S1196       S  0.40804050  0.37164231  0.58586313    -0.32600
H1197       H  0.42845515  0.36182674  0.56662346     0.28700
H1198       H  0.37966941  0.26567476  0.68261495     0.28700
H1199       H  0.40334539  0.26669777  0.59740771     0.19300
H1200       H  0.39577575  0.35964285  0.64645083     0.19300
C1201       C  0.38950858  0.15512879  0.90417341    -0.06500
C1202       C  0.40211761  0.12861062  0.90094427    -0.17600
C1203       C  0.40638048  0.11727150  0.87225006     0.10700
C1204       C  0.39730939  0.13242585  0.84653480    -0.06400
C1205       C  0.38080211  0.15611099  0.85016024    -0.17700
C1206       C  0.37723894  0.16798657  0.87835531     0.10700
S1207       S  0.42632818  0.08523436  0.86807183    -0.32600
S1208       S  0.35949124  0.20154477  0.87841626    -0.32600
H1209       H  0.35309756  0.20075986  0.90863907     0.28700
H1210       H  0.43195207  0.08089746  0.89860821     0.28700
H1211       H  0.41122419  0.11845076  0.92033016     0.19300
H1212       H  0.37377018  0.16772937  0.83056357     0.19300
C1213       C  0.39917201  0.16137676  0.60040965    -0.06500
C1214       C  0.37519181  0.15926848  0.61716953    -0.17600
C1215       C  0.37553880  0.16018673  0.64876064     0.10700
C1216       C  0.40036110  0.16377167  0.66403120    -0.06400
C1217       C  0.42413906  0.16446353  0.64690490    -0.18300
C1218       C  0.42386598  0.16232598  0.61584302     0.10700
S1219       S  0.34351640  0.15979007  0.66770645    -0.32600
S1220       S  0.45516012  0.16450010  0.59539684    -0.32600
H1221       H  0.47245507  0.16671891  0.62015331     0.28700
H1222       H  0.35192117  0.17482063  0.69302232     0.28700
H1223       H  0.35592623  0.15980688  0.60562351     0.19300
H1224       H  0.44337875  0.16593553  0.65806183     0.19300
C1225       C  0.14561803  0.34521108  0.93402844    -0.06500
C1226       C  0.13576312  0.36576627  0.95436635    -0.17600
C1227       C  0.13701135  0.39488706  0.94854982     0.10700
C1228       C  0.14850714  0.40443709  0.92180164    -0.06400
C1229       C  0.15555426  0.38423742  0.89992651    -0.17700
C1230       C  0.15415998  0.35477488  0.90563357     0.10700
S1231       S  0.12624414  0.41891171  0.97741605    -0.32600
S1232       S  0.16556460  0.33019177  0.87751785    -0.32600
H1233       H  0.16875216  0.35028363  0.85440664     0.28700
H1234       H  0.12104743  0.44195757  0.95802154     0.28700
H1235       H  0.12762758  0.35934051  0.97570199     0.19300
H1236       H  0.16475380  0.39164189  0.87939206     0.19300
C1237       C  0.14367352  0.14245999  0.92664242    -0.06500
C1238       C  0.13735822  0.13534131  0.89705365    -0.17600
C1239       C  0.13967743  0.10712574  0.88727206     0.10700
C1240       C  0.14742169  0.08537489  0.90764759    -0.06400
C1241       C  0.15235281  0.09246574  0.93740625    -0.17700
C1242       C  0.15200497  0.12068177  0.94662477     0.10700
S1243       S  0.13250457  0.09987095  0.84858268    -0.32600
S1244       S  0.16360295  0.12785820  0.98402067    -0.32600
H1245       H  0.17167083  0.15588058  0.97816090     0.28700
H1246       H  0.12649768  0.07103065  0.85295066     0.28700
H1247       H  0.12986895  0.15158561  0.88179491     0.19300
H1248       H  0.15868765  0.07610401  0.95307292     0.19300
C1249       C  0.13534181  0.40203839  0.56604476    -0.06500
C1250       C  0.14356273  0.38126123  0.58713883    -0.17600
C1251       C  0.14219954  0.35197740  0.58120200     0.10700
C1252       C  0.13173117  0.34280667  0.55360755    -0.06400
C1253       C  0.12162274  0.36380061  0.53355694    -0.17700
C1254       C  0.12313280  0.39288164  0.53946197     0.10700
S1255       S  0.15769113  0.32795432  0.60772904    -0.32600
S1256       S  0.11245448  0.41725134  0.51036294    -0.32600
H1257       H  0.10865814  0.44062758  0.52925857     0.28700
H1258       H  0.17072716  0.31130465  0.58604727     0.28700
H1259       H  0.15462587  0.38800042  0.60666126     0.19300
H1260       H  0.11340986  0.35768212  0.51215506     0.19300
C1261       C  0.11324895  0.13907530  0.56131594    -0.06500
C1262       C  0.13729801  0.13626520  0.57737744    -0.17600
C1263       C  0.14830481  0.10943688  0.58367720     0.10700
C1264       C  0.13439668  0.08458071  0.57482808    -0.06400
C1265       C  0.10851633  0.08723570  0.56297518    -0.17700
C1266       C  0.09791803  0.11408399  0.55547432     0.10700
S1267       S  0.18175889  0.10766168  0.59994631    -0.32600
S1268       S  0.06618142  0.11498153  0.53551652    -0.32600
H1269       H  0.05834292  0.08695895  0.54176368     0.28700
H1270       H  0.18272329  0.13592033  0.60971034     0.28700
H1271       H  0.14903040  0.15499365  0.58199960     0.19300
H1272       H  0.09797760  0.06823632  0.55644165     0.19300
C1273       C  0.07220369  0.34336260  0.89362441    -0.06500
C1274       C  0.08777025  0.33087576  0.87075292    -0.17600
C1275       C  0.08014028  0.33366327  0.84056236     0.10700
C1276       C  0.05701313  0.34992159  0.83341664    -0.06400
C1277       C  0.04505303  0.36675511  0.85579503    -0.17700
C1278       C  0.05234691  0.36351499  0.88583325     0.10700
S1279       S  0.09727287  0.31310618  0.81238714    -0.32600
S1280       S  0.03317606  0.38246418  0.91350660    -0.32600
H1281       H  0.05298601  0.37999210  0.93601149     0.28700
H1282       H  0.11843162  0.30310033  0.83086463     0.28700
H1283       H  0.10337068  0.31559745  0.87683456     0.19300
H1284       H  0.02781085  0.38018837  0.85025953     0.19300
C1285       C  0.05296371  0.34162060  0.57526610    -0.06500
C1286       C  0.07217445  0.33173778  0.59644461    -0.17600
C1287       C  0.06712358  0.33283172  0.62738070     0.10700
C1288       C  0.04308097  0.34558070  0.63733725    -0.06400
C1289       C  0.02604669  0.35933338  0.61623431    -0.17700
C1290       C  0.03026282  0.35675536  0.58546617     0.10700
S1291       S  0.08929439  0.31458247  0.65338397    -0.32600
S1292       S  0.00437664  0.37016402  0.56052769    -0.32600
H1293       H  0.02024130  0.36955607  0.53450677     0.28700
H1294       H  0.10586639  0.30154575  0.63189595     0.28700
H1295       H  0.08950520  0.31981991  0.58876631     0.19300
H1296       H  0.00763315  0.36967782  0.62372493     0.19300
C1297       C  0.06961871  0.16862975  0.88564536    -0.06500
C1298       C  0.07550466  0.18402457  0.85919741    -0.17600
C1299       C  0.07332165  0.17187449  0.83097513     0.10700
C1300       C  0.06463058  0.14373062  0.82871032    -0.06400
C1301       C  0.06402047  0.12688657  0.85493977    -0.17700
C1302       C  0.06656753  0.13898826  0.88346579     0.10700
S1303       S  0.07770692  0.19458603  0.79883850    -0.32600
S1304       S  0.06363987  0.11660647  0.91616173    -0.32600
H1305       H  0.06799498  0.09076798  0.90127961     0.28700
H1306       H  0.08980741  0.17326268  0.78141222     0.28700
H1307       H  0.08041345  0.20634502  0.86019330     0.19300
H1308       H  0.05822992  0.10485901  0.85320450     0.19300
C1309       C  0.03636528  0.15948403  0.64155735    -0.06500
C1310       C  0.02184346  0.14484271  0.61933481    -0.17600
C1311       C  0.02462629  0.15134256  0.58876326     0.10700
C1312       C  0.04277504  0.17271184  0.58019336    -0.06400
C1313       C  0.05982729  0.18432010  0.60214557    -0.17700
C1314       C  0.05676074  0.17819271  0.63259299     0.10700
S1315       S  0.00351133  0.13277612  0.56256400    -0.32600
S1316       S  0.07813506  0.19664914  0.65853364    -0.32600
H1317       H  0.05957863  0.19834254  0.68213674     0.28700
H1318       H  0.00294867  0.15368038  0.54007509     0.28700
H1319       H  0.00664730  0.12971412  0.62604713     0.19300
H1320       H  0.07426830  0.20030848  0.59569093     0.19300
O1321       O  0.12250468  0.69195715  0.05037317    -0.75700
O1322       O  0.10263436  0.66381046  0.01581475    -0.54600
C1323       C  0.11544790  0.66724755  0.04018056     0.78100
O1324       O  0.03998369  0.79877059  0.04567439    -0.60300
O1325       O  0.06397668  0.83113342  0.01910451    -0.53300
C1326       C  0.05119289  0.82311215  0.04263062     0.70100
O1327       O  0.04067346  0.71053121  0.05094942    -0.74800
O1328       O  0.05555646  0.67281307  0.02415818    -0.55400
C1329       C  0.04731218  0.68431049  0.04866107     0.76100
O1330       O  0.13316402  0.79170894  0.05002460    -0.60000
O1331       O  0.11455418  0.82483798  0.01843156    -0.53100
C1332       C  0.12848688  0.81771337  0.04128552     0.72700
Zr1333     Zr  0.12019593  0.74301684  0.03312968     2.54700
O1334       O  0.11622900  0.74268180  0.08734998    -0.80500
O1335       O  0.16917377  0.73719893  0.03373612    -0.94000
Zr1336     Zr  0.03969547  0.75286225  0.02022682     2.64700
O1337       O  0.01123972  0.75249430  0.06450904    -0.98900
O1338       O  0.99443885  0.75720101  0.99946107    -0.81000
O1339       O  0.07875177  0.72688654  0.01978523    -0.84300
O1340       O  0.08242837  0.77338403  0.02751635    -2.19000
O1341       O  0.14942297  0.79431463  0.43861091    -0.67700
O1342       O  0.13539361  0.81539064  0.48001843    -0.52300
C1343       C  0.14609489  0.81691592  0.45440526     0.71000
O1344       O  0.06435505  0.71269793  0.40320090    -0.60600
O1345       O  0.06186396  0.67520393  0.43478672    -0.52600
C1346       C  0.06459770  0.68581637  0.40835735     0.72800
O1347       O  0.06242056  0.80438936  0.41014872    -0.72000
O1348       O  0.08241763  0.83405853  0.44358296    -0.50700
C1349       C  0.07354681  0.82796683  0.41736792     0.74200
O1350       O  0.14323936  0.69437730  0.43848770    -0.67400
O1351       O  0.11007095  0.66652062  0.45829499    -0.54600
C1352       C  0.13212069  0.67007112  0.44402306     0.72600
Zr1353     Zr  0.13438781  0.74509896  0.45138563     2.77500
O1354       O  0.14844383  0.74502438  0.39925566    -0.98100
O1355       O  0.18088435  0.74230291  0.46914596    -0.78900
Zr1356     Zr  0.05512687  0.75655498  0.42975194     2.70100
O1357       O  0.04619754  0.76235168  0.37645409    -0.80200
O1358       O  0.00623696  0.75585845  0.42377242    -0.99300
Zr1359     Zr  0.07755963  0.69726912  0.48065553     2.21500
Zr1360     Zr  0.08778797  0.80106487  0.98352262     2.11100
O1361       O  0.09758858  0.77643248  0.44167203    -2.47900
O1362       O  0.09188620  0.72522798  0.43958809    -0.80000
O1363       O  0.12689290  0.77120445  0.49597887    -0.72200
O1364       O  0.04005425  0.72328584  0.97681186    -2.33100
O1365       O  0.12080816  0.71675447  0.49287819    -2.29300
O1366       O  0.04432946  0.78164246  0.97675166    -0.73900
H1367       H  0.08361137  0.78351612  0.04582025     0.78100
H1368       H  0.02406882  0.71188169  0.97463543     0.79200
H1369       H  0.10417806  0.78731920  0.42502332     0.81400
H1370       H  0.13406722  0.70197932  0.49659781     0.79000
H1371       H  0.98841492  0.77661976  0.00472275     0.42000
H1372       H  0.00169227  0.77373445  0.41302697     0.41000
H1373       H  0.06428151  0.76256568  0.36702703     0.40700
H1374       H  0.16514762  0.73328797  0.39894408     0.38600
H1375       H  0.18558335  0.72184811  0.46855375     0.41700
H1376       H  0.17241933  0.71698635  0.02890909     0.36500
H1377       H  0.13503429  0.74442396  0.09466909     0.42600
H1378       H  0.02372952  0.75537009  0.08153043     0.39100
H1379       H  0.13474897  0.73343767  0.38894169     0.44000
H1380       H  0.17421080  0.73870567  0.05509222     0.42700
H1381       H  0.00064993  0.77040073  0.06322666     0.42800
H1382       H  0.00299229  0.74074399  0.40898702     0.43200
O1383       O  0.41755450  0.70154750  0.06440904    -0.75700
O1384       O  0.39389812  0.66538491  0.04406598    -0.54600
C1385       C  0.40664765  0.67712723  0.06609109     0.78100
O1386       O  0.33975581  0.80045375  0.05820450    -0.60300
O1387       O  0.36470200  0.82603298  0.02478675    -0.53300
C1388       C  0.34888938  0.82428958  0.04716983     0.70100
O1389       O  0.33021883  0.69788110  0.06537854    -0.74800
O1390       O  0.34903376  0.66252382  0.52475066    -0.55400
C1391       C  0.33406012  0.67121953  0.05784115     0.76100
O1392       O  0.44326158  0.78345195  0.03584322    -0.60000
O1393       O  0.41291388  0.81779642  0.02771431    -0.53100
C1394       C  0.42946848  0.80464469  0.04539869     0.72700
Zr1395     Zr  0.42606480  0.73596471  0.02600635     2.54700
O1396       O  0.46347481  0.73592431  0.06182241    -0.80500
O1397       O  0.46386369  0.71155025  0.00161527    -0.94000
Zr1398     Zr  0.34483879  0.74763934  0.04774359     2.64700
O1399       O  0.35797527  0.74908914  0.10022984    -0.98900
O1400       O  0.29722259  0.75344728  0.05992498    -0.81000
O1401       O  0.38281447  0.71837292  0.03854576    -0.84300
O1402       O  0.38776375  0.76613650  0.03508370    -2.19000
O1403       O  0.43756254  0.78315736  0.43245646    -0.67700
O1404       O  0.40663980  0.81651690  0.44490054    -0.52300
C1405       C  0.42371040  0.80554785  0.42640155     0.71000
O1406       O  0.33798911  0.69144434  0.42819176    -0.60600
O1407       O  0.34194443  0.66608241  0.47040316    -0.52600
C1408       C  0.33906653  0.66719837  0.44242237     0.72800
O1409       O  0.33321408  0.79390427  0.42897828    -0.72000
O1410       O  0.35918623  0.82416952  0.45619601    -0.50700
C1411       C  0.34197614  0.81910487  0.43580287     0.74200
O1412       O  0.40984669  0.69713902  0.42105254    -0.67400
O1413       O  0.39780102  0.66215345  0.45322940    -0.54600
C1414       C  0.40284226  0.67170088  0.42667261     0.72600
Zr1415     Zr  0.42188451  0.73735003  0.44995647     2.77500
O1416       O  0.44119159  0.74131363  0.39993413    -0.98100
O1417       O  0.46620973  0.71593011  0.45885680    -0.78900
Zr1418     Zr  0.34018391  0.74269121  0.44558214     2.70100
O1419       O  0.32911799  0.74426511  0.39253719    -0.80200
O1420       O  0.29159297  0.74149203  0.45379658    -0.99300
Zr1421     Zr  0.37764760  0.68941130  0.49474785     2.21500
Zr1422     Zr  0.38426119  0.79508441  0.48885809     2.11100
O1423       O  0.38236804  0.76593124  0.44532083    -2.47900
O1424       O  0.37973314  0.71933774  0.45531576    -0.80000
O1425       O  0.42532785  0.76829489  0.49159897    -0.72200
O1426       O  0.33640919  0.71708895  0.49118024    -2.33100
O1427       O  0.42151157  0.70943394  0.49464695    -2.29300
O1428       O  0.34075330  0.77237019  0.48820320    -0.73900
H1429       H  0.39025024  0.77714455  0.05274548     0.78100
H1430       H  0.32004121  0.70611723  0.49126417     0.79200
H1431       H  0.38249935  0.77588104  0.42647699     0.81400
H1432       H  0.43465703  0.69416337  0.49521699     0.79000
H1433       H  0.28831770  0.75723618  0.04043756     0.42000
H1434       H  0.28390569  0.75334011  0.43742524     0.41000
H1435       H  0.34270132  0.75702553  0.38357051     0.40700
H1436       H  0.42546596  0.74265530  0.38624252     0.38600
H1437       H  0.46857054  0.70195432  0.44264734     0.41700
H1438       H  0.47994526  0.71330096  0.01459250     0.36500
H1439       H  0.46776600  0.71577332  0.06624196     0.42600
H1440       H  0.37288474  0.73500240  0.10204754     0.39100
H1441       H  0.44967901  0.72268604  0.39561933     0.44000
H1442       H  0.46785343  0.72324557  0.98373736     0.42700
H1443       H  0.36688148  0.76762934  0.10264123     0.42800
H1444       H  0.28642013  0.72188574  0.44865788     0.43200
O1445       O  0.17813210  0.56296690  0.14721752    -0.75700
O1446       O  0.15582914  0.52238584  0.14984652    -0.54600
C1447       C  0.15555975  0.54907831  0.14860974     0.78100
O1448       O  0.26783133  0.55822610  0.05204264    -0.60300
O1449       O  0.30032853  0.53863035  0.08206014    -0.53300
C1450       C  0.29081031  0.55927221  0.06554549     0.70100
O1451       O  0.18580773  0.56267501  0.06736903    -0.74800
O1452       O  0.15111555  0.53676094  0.08548376    -0.55400
C1453       C  0.16139801  0.56028781  0.07587408     0.76100
O1454       O  0.27548663  0.55791638  0.15466079    -0.60000
O1455       O  0.29837152  0.51719760  0.14827603    -0.53100
C1456       C  0.29806701  0.54350517  0.15310035     0.72700
Zr1457     Zr  0.22630305  0.54351600  0.14940495     2.54700
O1458       O  0.22979816  0.59471633  0.15472237    -0.80500
O1459       O  0.22281656  0.54106040  0.20364689    -0.94000
Zr1460     Zr  0.22503753  0.53380323  0.06010574     2.64700
O1461       O  0.22444403  0.57554643  0.02737020    -0.98900
O1462       O  0.21281172  0.51536326  0.01145214    -0.81000
O1463       O  0.20459013  0.53343788  0.10568215    -0.84300
O1464       O  0.25053660  0.53925863  0.10434676    -2.19000
O1465       O  0.27527533  0.94188703  0.17630701    -0.67700
O1466       O  0.30711869  0.96502692  0.14849922    -0.52300
C1467       C  0.30015697  0.94837669  0.16959314     0.71000
O1468       O  0.20120074  0.92100378  0.06552569    -0.60600
O1469       O  0.16423974  0.94840598  0.07372196    -0.52600
C1470       C  0.17577033  0.92411158  0.06885259     0.72800
O1471       O  0.28606624  0.92701521  0.07079303    -0.72000
O1472       O  0.31544435  0.95738663  0.09266963    -0.50700
C1473       C  0.30958513  0.93362619  0.07981590     0.74200
O1474       O  0.17834439  0.94294782  0.16229534    -0.67400
O1475       O  0.15287497  0.96725900  0.12760048    -0.54600
C1476       C  0.15529428  0.95076815  0.15021825     0.72600
Zr1477     Zr  0.22846591  0.95284592  0.15580161     2.77500
O1478       O  0.22891885  0.90130026  0.16001835    -0.98100
O1479       O  0.22125160  0.95818759  0.20931826    -0.78900
Zr1480     Zr  0.24190254  0.94727585  0.06684085     2.70100
O1481       O  0.24645549  0.89745181  0.05333389    -0.80200
O1482       O  0.25005795  0.95059534  0.01360616    -0.99300
Zr1483     Zr  0.18434606  0.99088978  0.09649056     2.21500
Zr1484     Zr  0.27785952  0.49696070  0.10601962     2.11100
O1485       O  0.25972424  0.95118065  0.11544352    -2.47900
O1486       O  0.21076594  0.94972162  0.10679633    -0.80000
O1487       O  0.25378557  0.50174289  0.15270356    -0.72200
O1488       O  0.19695719  0.49314327  0.06301210    -2.33100
O1489       O  0.20138155  0.99388112  0.14689176    -2.29300
O1490       O  0.25298073  0.49239525  0.06062240    -0.73900
H1491       H  0.25927686  0.55731980  0.10464494     0.78100
H1492       H  0.18318634  0.49218560  0.04775096     0.79200
H1493       H  0.27112493  0.93498994  0.11989438     0.81400
H1494       H  0.18702908  0.99506529  0.16140989     0.79000
H1495       H  0.19532572  0.52464690  0.00640670     0.42000
H1496       H  0.26659115  0.96215175  0.01199421     0.41000
H1497       H  0.24755433  0.88708103  0.07265456     0.40700
H1498       H  0.21115708  0.89644171  0.16866436     0.38600
H1499       H  0.23950609  0.96082394  0.21788733     0.41700
H1500       H  0.20968202  0.55622813  0.20880660     0.36500
H1501       H  0.22039214  0.59902987  0.17367718     0.42600
H1502       H  0.22188258  0.59208660  0.04060465     0.39100
H1503       H  0.22798830  0.89463081  0.13911154     0.44000
H1504       H  0.24040556  0.54808515  0.21095014     0.42700
H1505       H  0.20746174  0.57456304  0.01569797     0.42800
H1506       H  0.25629784  0.93130645  0.00826762     0.43200
O1507       O  0.20174650  0.56810883  0.41232628    -0.75700
O1508       O  0.16731971  0.53663374  0.40960203    -0.54600
C1509       C  0.17676760  0.56187108  0.41341982     0.78100
O1510       O  0.28515695  0.53569296  0.30505237    -0.60300
O1511       O  0.31428667  0.50986802  0.33428718    -0.53300
C1512       C  0.30933296  0.52645720  0.31244363     0.70100
O1513       O  0.18812652  0.53484218  0.31091294    -0.74800
O1514       O  0.16197652  0.51737181  0.34864178    -0.55400
C1515       C  0.16479038  0.52925484  0.32305096     0.76100
O1516       O  0.28698793  0.56622798  0.40814952    -0.60000
O1517       O  0.31883690  0.53439915  0.39258924    -0.53100
C1518       C  0.31111779  0.55957030  0.40085446     0.72700
Zr1519     Zr  0.24426578  0.54366458  0.41301502     2.54700
O1520       O  0.24430921  0.59476435  0.42088328    -0.80500
O1521       O  0.24839968  0.54690585  0.46708228    -0.94000
Zr1522     Zr  0.23734474  0.52743932  0.32459723     2.64700
O1523       O  0.23465422  0.57822365  0.31450401    -0.98900
O1524       O  0.23597383  0.51434893  0.27212580    -0.81000
O1525       O  0.21558783  0.53613946  0.37136606    -0.84300
O1526       O  0.26565937  0.53499350  0.36638828    -2.19000
O1527       O  0.28790485  0.93859971  0.43753659    -0.67700
O1528       O  0.31540245  0.95288572  0.40016596    -0.52300
C1529       C  0.30790758  0.93449892  0.41999544     0.71000
O1530       O  0.18517523  0.93242647  0.33384128    -0.60600
O1531       O  0.15750908  0.96005608  0.36266132    -0.52600
C1532       C  0.16130954  0.94071908  0.34327064     0.72800
O1533       O  0.28323525  0.93085212  0.32540781    -0.72000
O1534       O  0.31435656  0.96030127  0.34641270    -0.50700
C1535       C  0.30805836  0.93964784  0.32966445     0.74200
O1536       O  0.20432984  0.92934203  0.43189741    -0.67400
O1537       O  0.16728691  0.95354773  0.41539354    -0.54600
C1538       C  0.17913225  0.93109514  0.42612828     0.72600
Zr1539     Zr  0.24323046  0.95903978  0.43097984     2.77500
O1540       O  0.25112327  0.91862755  0.46487517    -0.98100
O1541       O  0.24139760  0.98088645  0.47992122    -0.78900
Zr1542     Zr  0.23505496  0.94347784  0.34256246     2.70100
O1543       O  0.23451035  0.89353155  0.35678699    -0.80200
O1544       O  0.23096164  0.93270204  0.28959585    -0.99300
Zr1545     Zr  0.18728420  0.99235653  0.38560235     2.21500
Zr1546     Zr  0.28929039  0.99192515  0.37585475     2.11100
O1547       O  0.26352750  0.95010434  0.38406280    -2.47900
O1548       O  0.21845622  0.95709286  0.38798212    -0.80000
O1549       O  0.27006178  0.99983104  0.42342943    -0.72200
O1550       O  0.20817196  0.98495470  0.33754914    -2.33100
O1551       O  0.21423688  0.99974934  0.42883736    -2.29300
O1552       O  0.26068919  0.98478735  0.33279574    -0.73900
H1553       H  0.27673705  0.55054258  0.35996944     0.78100
H1554       H  0.19534938  0.98179773  0.32169119     0.79200
H1555       H  0.27313828  0.93228765  0.38366832     0.81400
H1556       H  0.20328007  0.00254375  0.44637663     0.79000
H1557       H  0.22430831  0.49743046  0.27163135     0.42000
H1558       H  0.24328903  0.91632092  0.28644910     0.41000
H1559       H  0.21923403  0.88555303  0.34538796     0.40700
H1560       H  0.23397249  0.90852668  0.46814982     0.38600
H1561       H  0.26049868  0.98149176  0.48651708     0.41700
H1562       H  0.23726269  0.56366894  0.47241920     0.36500
H1563       H  0.24431551  0.60320333  0.40053206     0.42600
H1564       H  0.23403974  0.58696995  0.33454685     0.39100
H1565       H  0.25549962  0.92692199  0.48452874     0.44000
H1566       H  0.26724908  0.55295674  0.47051171     0.42700
H1567       H  0.25267072  0.58319708  0.30659291     0.42800
H1568       H  0.23980738  0.94874121  0.27925895     0.43200
O1569       O  0.02294123  0.57929998  0.16156662    -0.75700
O1570       O  0.05669486  0.58830765  0.19508344    -0.54600
C1571       C  0.04843402  0.58167627  0.16916227     0.78100
O1572       O  0.43915934  0.68284978  0.20261688    -0.60300
O1573       O  0.40935710  0.64873842  0.20951595    -0.53300
C1574       C  0.41945626  0.66836743  0.19297646     0.70100
O1575       O  0.01214151  0.66119157  0.17441780    -0.74800
O1576       O  0.05036263  0.63962749  0.19172373    -0.55400
C1577       C  0.03651169  0.65237665  0.17079736     0.76100
O1578       O  0.42770142  0.57753872  0.17015819    -0.60000
O1579       O  0.40451777  0.59594579  0.20946559    -0.53100
C1580       C  0.40527886  0.58405649  0.18416219     0.72700
Zr1581     Zr  0.47847675  0.58155624  0.17882751     2.54700
O1582       O  0.47062272  0.59097410  0.12603239    -0.80500
O1583       O  0.47564874  0.53049947  0.17170585    -0.94000
Zr1584     Zr  0.48538102  0.66558877  0.20470309     2.64700
O1585       O  0.47663060  0.70467608  0.16959729    -0.98900
O1586       O  0.50888561  0.70715762  0.22312618    -0.81000
O1587       O  0.00169154  0.62285563  0.19884558    -0.84300
O1588       O  0.45877635  0.62433218  0.19571686    -2.19000
O1589       O  0.43967655  0.54284227  0.27236231    -0.67700
O1590       O  0.41015547  0.57873917  0.25987425    -0.52300
C1591       C  0.41541058  0.55390684  0.26962512     0.71000
O1592       O  0.03491887  0.61201975  0.30722510    -0.60600
O1593       O  0.06316832  0.62951127  0.27389936    -0.52600
C1594       C  0.05660042  0.62514340  0.30131695     0.72800
O1595       O  0.45450094  0.63572116  0.31870724    -0.72000
O1596       O  0.41721069  0.62961463  0.28982775    -0.50700
C1597       C  0.42909987  0.63243557  0.31533747     0.74200
O1598       O  0.03551670  0.54380952  0.27937181    -0.67400
O1599       O  0.06304440  0.57241008  0.25167906    -0.54600
C1600       C  0.05921796  0.55220577  0.27034111     0.72600
Zr1601     Zr  0.48829902  0.55695766  0.26214747     2.77500
O1602       O  0.48941788  0.53411226  0.31113393    -0.98100
O1603       O  0.49121396  0.51099571  0.23798976    -0.78900
Zr1604     Zr  0.49402243  0.63825905  0.28801732     2.70100
O1605       O  0.50282042  0.64659306  0.34074330    -0.80200
O1606       O  0.50728694  0.68654292  0.29990665    -0.99300
Zr1607     Zr  0.03429976  0.60986361  0.23454357     2.21500
Zr1608     Zr  0.43643349  0.61594014  0.24145313     2.11100
O1609       O  0.46590990  0.59843995  0.27953968    -2.47900
O1610       O  0.01377105  0.59399727  0.27955538    -0.80000
O1611       O  0.45718092  0.57244566  0.22506509    -0.72200
O1612       O  0.01362872  0.65154356  0.25439203    -2.33100
O1613       O  0.00786660  0.56833132  0.22407196    -2.29300
O1614       O  0.46317860  0.65639056  0.25132163    -0.73900
H1615       H  0.44566883  0.62670373  0.18023502     0.78100
H1616       H  0.02703868  0.66567986  0.25866516     0.79200
H1617       H  0.45649139  0.59144773  0.29687544     0.81400
H1618       H  0.01917434  0.55294904  0.21704845     0.79000
H1619       H  0.52483401  0.70899384  0.20994647     0.42000
H1620       H  0.52709030  0.68697292  0.29696730     0.41000
H1621       H  0.50216737  0.62753631  0.35016679     0.40700
H1622       H  0.47631677  0.54507222  0.32324011     0.38600
H1623       H  0.51063149  0.50577330  0.23878704     0.41700
H1624       H  0.95791509  0.52797521  0.16877587     0.36500
H1625       H  0.97174874  0.58329262  0.12300556     0.42600
H1626       H  0.47257973  0.72138356  0.18216039     0.39100
H1627       H  0.48070286  0.51555200  0.30806486     0.44000
H1628       H  0.45801124  0.52768426  0.16172044     0.42700
H1629       H  0.49424966  0.70902425  0.16030372     0.42800
H1630       H  0.49973973  0.69846188  0.28353350     0.43200
O1631       O  0.01804911  0.83505693  0.16235919    -0.75700
O1632       O  0.05527213  0.84990878  0.18729685    -0.54600
C1633       C  0.04224531  0.84412084  0.16289294     0.78100
O1634       O  0.42865113  0.91695961  0.18887328    -0.60300
O1635       O  0.40497387  0.88272261  0.21352518    -0.53300
C1636       C  0.40622823  0.90544325  0.19806750     0.70100
O1637       O  0.02378791  0.92100063  0.18014820    -0.74800
O1638       O  0.05746118  0.90015029  0.20788804    -0.55400
C1639       C  0.04921074  0.91688538  0.18734526     0.76100
O1640       O  0.44624661  0.79907193  0.18500054    -0.60000
O1641       O  0.41328346  0.82989152  0.19238538    -0.53100
C1642       C  0.42545557  0.81215431  0.17524835     0.72700
Zr1643     Zr  0.48971349  0.82126087  0.18381575     2.54700
O1644       O  0.47967335  0.81333199  0.13120343    -0.80500
O1645       O  0.51097510  0.77444777  0.18130091    -0.94000
Zr1646     Zr  0.47888830  0.90629398  0.19143591     2.64700
O1647       O  0.47313759  0.90694629  0.13735267    -0.98900
O1648       O  0.47501676  0.95769837  0.19484207    -0.81000
O1649       O  0.00507234  0.86395421  0.19713031    -0.84300
O1650       O  0.45916909  0.86056568  0.18869290    -2.19000
O1651       O  0.45356384  0.79549409  0.28994722    -0.67700
O1652       O  0.41906412  0.82545854  0.27941563    -0.52300
C1653       C  0.43241013  0.80935078  0.29784763     0.71000
O1654       O  0.03406072  0.91570424  0.29958951    -0.60600
O1655       O  0.06270046  0.89598362  0.26558976    -0.52600
C1656       C  0.05812275  0.91160378  0.28817741     0.72800
O1657       O  0.43618523  0.90720019  0.29313153    -0.72000
O1658       O  0.40813295  0.87675458  0.26874056    -0.50700
C1659       C  0.41230219  0.89686542  0.28708675     0.74200
O1660       O  0.03528992  0.82949198  0.30828373    -0.67400
O1661       O  0.06637740  0.84698259  0.27604814    -0.54600
C1662       C  0.05829426  0.84033036  0.30253915     0.72600
Zr1663     Zr  0.49601264  0.81241838  0.26911103     2.77500
O1664       O  0.50399393  0.78210026  0.31289907    -0.98100
O1665       O  0.50983538  0.76695715  0.24844836    -0.78900
Zr1666     Zr  0.48568102  0.89913367  0.27923436     2.70100
O1667       O  0.48707136  0.89495361  0.33354593    -0.80200
O1668       O  0.48167400  0.95059277  0.28168020    -0.99300
Zr1669     Zr  0.03626367  0.86506407  0.23641913     2.21500
Zr1670     Zr  0.43670180  0.85163938  0.23545974     2.11100
O1671       O  0.46720481  0.85286394  0.27682140    -2.47900
O1672       O  0.00909308  0.86185037  0.27638702    -0.80000
O1673       O  0.46532202  0.81124424  0.22848833    -0.72200
O1674       O  0.00802219  0.90678023  0.24043201    -2.33100
O1675       O  0.01913888  0.81795389  0.23826795    -2.29300
O1676       O  0.45612302  0.89832951  0.23735671    -0.73900
H1677       H  0.44701417  0.86160698  0.17188504     0.78100
H1678       H  0.01835380  0.92404674  0.23991302     0.79200
H1679       H  0.45852642  0.85193239  0.29597321     0.81400
H1680       H  0.03346760  0.80392983  0.23718765     0.79000
H1681       H  0.97724800  0.96212799  0.21810506     0.42000
H1682       H  0.47590699  0.95440667  0.30245283     0.41000
H1683       H  0.47460512  0.87933056  0.33850729     0.40700
H1684       H  0.49210364  0.76552354  0.31038485     0.38600
H1685       H  0.49367856  0.75496585  0.25093715     0.41700
H1686       H  0.52904354  0.77787247  0.17261770     0.36500
H1687       H  0.97286434  0.81555069  0.13647838     0.42600
H1688       H  0.48338632  0.89010742  0.13042953     0.39100
H1689       H  0.52241939  0.77414473  0.31021223     0.44000
H1690       H  0.50097758  0.76452092  0.16537674     0.42700
H1691       H  0.45396365  0.90197958  0.13410483     0.42800
H1692       H  0.50048059  0.95747873  0.28073205     0.43200
C1693       C  0.33269650  0.92672741  0.31532794    -0.06500
C1694       C  0.35260879  0.94588414  0.30509026    -0.17600
C1695       C  0.37931328  0.93724958  0.29853263     0.10700
C1696       C  0.38666036  0.90838407  0.30056445    -0.06400
C1697       C  0.36665512  0.88902764  0.31003545    -0.17700
C1698       C  0.34031927  0.89785812  0.31823344     0.10700
S1699       S  0.40349272  0.96339032  0.28689327    -0.32600
S1700       S  0.31796500  0.87140830  0.33320686    -0.32600
H1701       H  0.30590721  0.88897635  0.35470902     0.28700
H1702       H  0.39031027  0.98619090  0.30092045     0.28700
H1703       H  0.34740728  0.96821490  0.30314489     0.19300
H1704       H  0.37176443  0.86666548  0.31139640     0.19300
C1705       C  0.13553876  0.93011949  0.32972177    -0.06500
C1706       C  0.13268832  0.93103963  0.29864633    -0.17600
C1707       C  0.10731358  0.92773800  0.28476096     0.10700
C1708       C  0.08357326  0.92300019  0.30212669    -0.06400
C1709       C  0.08627090  0.92341815  0.33325064    -0.17700
C1710       C  0.11176687  0.92622339  0.34711106     0.10700
S1711       S  0.10564773  0.93101355  0.24460891    -0.32600
S1712       S  0.11368681  0.92341738  0.38723634    -0.32600
H1713       H  0.08595765  0.92005458  0.39277852     0.28700
H1714       H  0.13283990  0.93785776  0.23945749     0.28700
H1715       H  0.15032465  0.93557093  0.28523528     0.19300
H1716       H  0.06848512  0.92029744  0.34678475     0.19300
C1717       C  0.39045801  0.53940128  0.27938799    -0.06500
C1718       C  0.36901322  0.53681233  0.25847922    -0.17600
C1719       C  0.34181517  0.53355038  0.26758188     0.10700
C1720       C  0.33532095  0.53544589  0.29824637    -0.06400
C1721       C  0.35688734  0.53943497  0.31862283    -0.17700
C1722       C  0.38387133  0.53965089  0.30981332     0.10700
S1723       S  0.31678240  0.52725148  0.23919171    -0.32600
S1724       S  0.40910646  0.54154634  0.33863274    -0.32600
H1725       H  0.42766064  0.52380672  0.32385564     0.28700
H1726       H  0.30045880  0.50961126  0.25682033     0.28700
H1727       H  0.37350519  0.53784078  0.23479451     0.19300
H1728       H  0.35279367  0.54072326  0.34237591     0.19300
C1729       C  0.08478653  0.54056400  0.28358786    -0.06500
C1730       C  0.10752930  0.53669629  0.26488949    -0.17600
C1731       C  0.13398243  0.53339846  0.27658080     0.10700
C1732       C  0.13826838  0.53551920  0.30771575    -0.06400
C1733       C  0.11532800  0.53920659  0.32615894    -0.17700
C1734       C  0.08892948  0.54074515  0.31468522     0.10700
S1735       S  0.15980938  0.03144000  0.25125352    -0.32600
S1736       S  0.06077430  0.54374802  0.34010952    -0.32600
H1737       H  0.07582073  0.54406251  0.36681364     0.28700
H1738       H  0.14516613  0.03264230  0.22425789     0.28700
H1739       H  0.10455278  0.53687507  0.24089359     0.19300
H1740       H  0.11803299  0.54037313  0.35012243     0.19300
C1741       C  0.32416030  0.93639516  0.18524443    -0.06500
C1742       C  0.34523162  0.95559965  0.19134709    -0.17600
C1743       C  0.37229279  0.94677203  0.19429312     0.10700
C1744       C  0.37890109  0.91774705  0.19160420    -0.06400
C1745       C  0.35749979  0.89838568  0.18747128    -0.17700
C1746       C  0.33051492  0.90728221  0.18432017     0.10700
S1747       S  0.39711538  0.97367495  0.20107826    -0.32600
S1748       S  0.30536721  0.88047817  0.17843539    -0.32600
H1749       H  0.29178335  0.89469313  0.15503929     0.28700
H1750       H  0.41237301  0.95736685  0.22153011     0.28700
H1751       H  0.34069699  0.97812785  0.19201980     0.19300
H1752       H  0.36187893  0.87584199  0.18622956     0.19300
C1753       C  0.12871878  0.94131880  0.16211911    -0.06500
C1754       C  0.11090872  0.96192189  0.17406217    -0.17600
C1755       C  0.08336007  0.95612566  0.17952818     0.10700
C1756       C  0.07247074  0.92969710  0.17116137    -0.06400
C1757       C  0.09018927  0.90993915  0.15775042    -0.17700
C1758       C  0.11786858  0.91497519  0.15408889     0.10700
S1759       S  0.06408423  0.98188273  0.20037084    -0.32600
S1760       S  0.13837584  0.88649454  0.13963389    -0.32600
H1761       H  0.16135749  0.89279763  0.15666342     0.28700
H1762       H  0.03857755  0.97290927  0.19063362     0.28700
H1763       H  0.11866759  0.98263973  0.17963917     0.19300
H1764       H  0.08302895  0.88900456  0.15288248     0.19300
C1765       C  0.37772991  0.57713339  0.17213855    -0.06500
C1766       C  0.37501496  0.55453065  0.15246950    -0.17600
C1767       C  0.34947570  0.54383694  0.14492831     0.10700
C1768       C  0.32540482  0.55636388  0.15711056    -0.06400
C1769       C  0.32799479  0.58022705  0.17490542    -0.17700
C1770       C  0.35348187  0.59052766  0.18301743     0.10700
S1771       S  0.34876258  0.51397278  0.11965973    -0.32600
S1772       S  0.35364374  0.62051715  0.20804451    -0.32600
H1773       H  0.32615054  0.62053509  0.21590368     0.28700
H1774       H  0.37654112  0.51246578  0.11326144     0.28700
H1775       H  0.39311509  0.54425157  0.14415382     0.19300
H1776       H  0.30984679  0.59007319  0.18365271     0.19300
C1777       C  0.12749652  0.56161288  0.14579385    -0.06500
C1778       C  0.10641352  0.54277461  0.13767180    -0.17600
C1779       C  0.07900770  0.55038951  0.13917850     0.10700
C1780       C  0.07172883  0.57767806  0.14850756    -0.06400
C1781       C  0.09268678  0.59792231  0.15108262    -0.17700
C1782       C  0.12021233  0.59004947  0.15113388     0.10700
S1783       S  0.05428175  0.52336298  0.13274824    -0.32600
S1784       S  0.14429927  0.61641317  0.16187774    -0.32600
H1785       H  0.15744618  0.59875245  0.18295831     0.28700
H1786       H  0.03415834  0.54236621  0.12249039     0.28700
H1787       H  0.11104161  0.52109287  0.13149785     0.19300
H1788       H  0.08771534  0.61919650  0.15812319     0.19300
C1789       C  0.34087767  0.85306588  0.05850960    -0.06500
C1790       C  0.33795885  0.87466357  0.03660288    -0.17600
C1791       C  0.33323326  0.90299423  0.04395486     0.10700
C1792       C  0.32951777  0.91075346  0.07399204    -0.06400
C1793       C  0.33345115  0.88967706  0.09621440    -0.17700
C1794       C  0.33962541  0.86115678  0.08888743     0.10700
S1795       S  0.32906230  0.92814776  0.01361523    -0.32600
S1796       S  0.34525727  0.83638911  0.11913350    -0.32600
H1797       H  0.36445433  0.81978561  0.10401741     0.28700
H1798       H  0.33417417  0.95237747  0.03080969     0.28700
H1799       H  0.33923770  0.86945534  0.01308190     0.19300
H1800       H  0.33013055  0.89514155  0.11934494     0.19300
C1801       C  0.30299698  0.58855189  0.06710748    -0.06500
C1802       C  0.28505541  0.61224388  0.06623482    -0.17600
C1803       C  0.29398617  0.64043323  0.06846694     0.10700
C1804       C  0.32160038  0.64602164  0.07275047    -0.06400
C1805       C  0.33909524  0.62224137  0.07698154    -0.17700
C1806       C  0.33051410  0.59410934  0.07262661     0.10700
S1807       S  0.26963098  0.66849665  0.06215311    -0.32600
S1808       S  0.35639162  0.56725372  0.06942547    -0.32600
H1809       H  0.34248212  0.55082246  0.04839507     0.28700
H1810       H  0.28236000  0.68786788  0.08116580     0.28700
H1811       H  0.26362179  0.60897920  0.06319801     0.19300
H1812       H  0.36061543  0.62581285  0.07898734     0.19300
C1813       C  0.33192425  0.84559062  0.42115939    -0.06500
C1814       C  0.35124960  0.86654079  0.41398486    -0.17600
C1815       C  0.34459822  0.89567711  0.41321502     0.10700
C1816       C  0.31782999  0.90436552  0.41906353    -0.06400
C1817       C  0.29810694  0.88304018  0.42276251    -0.17700
C1818       C  0.30484729  0.85406200  0.42432305     0.10700
S1819       S  0.37144774  0.92051213  0.40712663    -0.32600
S1820       S  0.27921082  0.82841023  0.43344976    -0.32600
H1821       H  0.25766251  0.84781330  0.43686718     0.28700
H1822       H  0.36140546  0.94098873  0.42703925     0.28700
H1823       H  0.37230431  0.86034959  0.41185278     0.19300
H1824       H  0.27711392  0.88914192  0.42512587     0.19300
C1825       C  0.32954956  0.58399903  0.40259051    -0.06500
C1826       C  0.34395666  0.58663046  0.42910376    -0.17600
C1827       C  0.34852823  0.61330349  0.44180926     0.10700
C1828       C  0.33841757  0.63868868  0.42732415    -0.06400
C1829       C  0.32721869  0.63597718  0.39870192    -0.17700
C1830       C  0.32297915  0.60906704  0.38620950     0.10700
S1831       S  0.36591440  0.61313935  0.47757888    -0.32600
S1832       S  0.30616121  0.60769179  0.35052525    -0.32600
H1833       H  0.31520840  0.58012059  0.34388547     0.28700
H1834       H  0.37441566  0.58456864  0.47788529     0.28700
H1835       H  0.34872335  0.56752127  0.44173816     0.19300
H1836       H  0.32037343  0.65473612  0.38663861     0.19300
C1837       C  0.42463704  0.81545308  0.39460917    -0.06500
C1838       C  0.40113134  0.81260545  0.37686085    -0.17600
C1839       C  0.40239971  0.81041209  0.34536355     0.10700
C1840       C  0.42775755  0.81141251  0.33091333    -0.06400
C1841       C  0.45080801  0.81641440  0.34867756    -0.17700
C1842       C  0.44949645  0.81866883  0.37983472     0.10700
S1843       S  0.37135224  0.80399196  0.32553343    -0.32600
S1844       S  0.48041936  0.82554987  0.39967719    -0.32600
H1845       H  0.46793758  0.83720605  0.42505543     0.28700
H1846       H  0.38309269  0.78912713  0.30167582     0.28700
H1847       H  0.38180118  0.80974817  0.38765337     0.19300
H1848       H  0.47032932  0.81882056  0.33813138     0.19300
C1849       C  0.42714611  0.80846791  0.07883461    -0.06500
C1850       C  0.42741641  0.78365985  0.09662485    -0.17600
C1851       C  0.42365903  0.78409495  0.12760308     0.10700
C1852       C  0.41960821  0.81009387  0.14244756    -0.06400
C1853       C  0.41734588  0.83497524  0.12471668    -0.17700
C1854       C  0.42112467  0.83444785  0.09330294     0.10700
S1855       S  0.42453936  0.75040362  0.14705638    -0.32600
S1856       S  0.41901422  0.86770185  0.07331181    -0.32600
H1857       H  0.43853819  0.86054476  0.05178826     0.28700
H1858       H  0.40788022  0.75903597  0.17080752     0.28700
H1859       H  0.42932366  0.76322990  0.08618294     0.19300
H1860       H  0.41409840  0.85522595  0.13545131     0.19300
C1861       C  0.40043142  0.65382879  0.39986500    -0.06500
C1862       C  0.41646236  0.62936717  0.39776302    -0.17600
C1863       C  0.42411753  0.61924094  0.36956235     0.10700
C1864       C  0.41367845  0.63262920  0.34332585    -0.06400
C1865       C  0.39362909  0.65319910  0.34580296    -0.17700
C1866       C  0.38816477  0.66522535  0.37349703     0.10700
S1867       S  0.45006643  0.59205105  0.36734698    -0.32600
S1868       S  0.36897816  0.69792744  0.37359518    -0.32600
H1869       H  0.37026260  0.70403070  0.34281396     0.28700
H1870       H  0.45049509  0.58483203  0.39791467     0.28700
H1871       H  0.42598730  0.62082337  0.41775727     0.19300
H1872       H  0.38556149  0.66296063  0.32563305     0.19300
C1873       C  0.40755021  0.66504594  0.09668860    -0.06500
C1874       C  0.38537197  0.67050827  0.11566206    -0.17600
C1875       C  0.38842514  0.67217809  0.14703968     0.10700
C1876       C  0.41419535  0.66827831  0.15993253    -0.06400
C1877       C  0.43625142  0.66317323  0.14074146    -0.18300
C1878       C  0.43310802  0.66086914  0.10978095     0.10700
S1879       S  0.36044499  0.68363641  0.16985108    -0.32600
S1880       S  0.46238290  0.65519847  0.08644184    -0.32600
H1881       H  0.48199666  0.65976180  0.10865315     0.28700
H1882       H  0.34193913  0.68831351  0.14635921     0.28700
H1883       H  0.36618798  0.67627285  0.10577692     0.19300
H1884       H  0.45633748  0.66086591  0.14992924     0.19300
C1885       C  0.15275871  0.84627032  0.44372142    -0.06500
C1886       C  0.14036835  0.86940527  0.45873262    -0.17600
C1887       C  0.14630752  0.89771615  0.45188183     0.10700
C1888       C  0.16509926  0.90362730  0.42924632    -0.06400
C1889       C  0.17623602  0.88081484  0.41299334    -0.17700
C1890       C  0.17048762  0.85234860  0.41995734     0.10700
S1891       S  0.13051178  0.92490794  0.47412792    -0.32600
S1892       S  0.18760475  0.82442142  0.39983578    -0.32600
H1893       H  0.20257793  0.84194418  0.38058620     0.28700
H1894       H  0.12973078  0.94565963  0.45148369     0.28700
H1895       H  0.12606508  0.86555528  0.47656190     0.19300
H1896       H  0.19089265  0.88544305  0.39576693     0.19300
C1897       C  0.14537722  0.64330114  0.43511721    -0.06500
C1898       C  0.14257177  0.63358175  0.40573559    -0.17600
C1899       C  0.15037111  0.60579245  0.39806112     0.10700
C1900       C  0.15949805  0.58655963  0.42056104    -0.06400
C1901       C  0.16127214  0.59622476  0.45004748    -0.17700
C1902       C  0.15495945  0.62429049  0.45736762     0.10700
S1903       S  0.14871727  0.59652127  0.35912873    -0.32600
S1904       S  0.16024265  0.63496346  0.49553494    -0.32600
H1905       H  0.16726013  0.66305865  0.48848447     0.28700
H1906       H  0.17204565  0.57933444  0.35896096     0.28700
H1907       H  0.13430906  0.64769660  0.38870255     0.19300
H1908       H  0.16963048  0.58231049  0.46718779     0.19300
C1909       C  0.16084487  0.89674141  0.06845534    -0.06500
C1910       C  0.17631600  0.87139736  0.07249612    -0.17600
C1911       C  0.16566546  0.84452439  0.06704201     0.10700
C1912       C  0.13879372  0.84261190  0.05755789    -0.06400
C1913       C  0.12242846  0.86744385  0.05735979    -0.17700
C1914       C  0.13296876  0.89425775  0.06308765     0.10700
S1915       S  0.18739683  0.81353985  0.06902489    -0.32600
S1916       S  0.11020282  0.92421767  0.06108698    -0.32600
H1917       H  0.11758453  0.93425998  0.08944836     0.28700
H1918       H  0.20877778  0.82642303  0.08442584     0.28700
H1919       H  0.19742561  0.87254258  0.07860949     0.19300
H1920       H  0.10144475  0.86625327  0.05069084     0.19300
C1921       C  0.12304809  0.64022007  0.05607549    -0.06500
C1922       C  0.14686169  0.63935286  0.07288430    -0.17600
C1923       C  0.15858321  0.61340229  0.08180001     0.10700
C1924       C  0.14583338  0.58738389  0.07459155    -0.06400
C1925       C  0.12051092  0.58825698  0.06100778    -0.17700
C1926       C  0.10904829  0.61415756  0.05133131     0.10700
S1927       S  0.19081849  0.61393442  0.10099462    -0.32600
S1928       S  0.07742134  0.61246500  0.03118107    -0.32600
H1929       H  0.07046318  0.58472048  0.03976183     0.28700
H1930       H  0.19511702  0.64333402  0.09927467     0.28700
H1931       H  0.15739178  0.65893123  0.07709114     0.19300
H1932       H  0.11084818  0.56844337  0.05556839     0.19300
C1933       C  0.07953038  0.84649446  0.39182619    -0.06500
C1934       C  0.09980926  0.83635489  0.37232472    -0.17600
C1935       C  0.09609541  0.83755191  0.34108636     0.10700
C1936       C  0.07224472  0.84999578  0.32978335    -0.06400
C1937       C  0.05546836  0.86538618  0.34938155    -0.17700
C1938       C  0.05882046  0.86370598  0.38020758     0.10700
S1939       S  0.11959739  0.81997774  0.31657035    -0.32600
S1940       S  0.03313950  0.87924747  0.40355045    -0.32600
H1941       H  0.04885767  0.87869446  0.42979482     0.28700
H1942       H  0.14015682  0.81617991  0.33809581     0.28700
H1943       H  0.11617089  0.82348417  0.38144654     0.19300
H1944       H  0.03735010  0.87567305  0.34083403     0.19300
C1945       C  0.05516790  0.83862647  0.07088719    -0.06500
C1946       C  0.07464695  0.82694803  0.09071054    -0.17600
C1947       C  0.07369302  0.83178164  0.12149198     0.10700
C1948       C  0.05314098  0.84914237  0.13274681    -0.06400
C1949       C  0.03627386  0.86435429  0.11252792    -0.17700
C1950       C  0.03681042  0.85894912  0.08173660     0.10700
S1951       S  0.09584168  0.81224314  0.14652294    -0.32600
S1952       S  0.01176723  0.87596485  0.05821514    -0.32600
H1953       H  0.02568995  0.87192703  0.03120664     0.28700
H1954       H  0.11140404  0.79880321  0.12438084     0.28700
H1955       H  0.08914634  0.81169841  0.08275731     0.19300
H1956       H  0.02044780  0.87804916  0.12118257     0.19300
C1957       C  0.06957944  0.66734682  0.38183520    -0.06500
C1958       C  0.07690461  0.68074684  0.35466053    -0.17600
C1959       C  0.07814153  0.66596870  0.32773191     0.10700
C1960       C  0.07096445  0.63724175  0.32733263    -0.06400
C1961       C  0.06822497  0.62288759  0.35490584    -0.17700
C1962       C  0.06768649  0.63742328  0.38218367     0.10700
S1963       S  0.08602744  0.68566146  0.29432272    -0.32600
S1964       S  0.06275126  0.61733869  0.41629879    -0.32600
H1965       H  0.06687074  0.59025600  0.40399955     0.28700
H1966       H  0.10135712  0.66345598  0.28178282     0.28700
H1967       H  0.08080963  0.70330518  0.35392093     0.19300
H1968       H  0.06351371  0.60061874  0.35484594     0.19300
C1969       C  0.04639388  0.65407923  0.13947030    -0.06500
C1970       C  0.03193026  0.63895180  0.11757292    -0.17600
C1971       C  0.03318094  0.64602397  0.08694029     0.10700
C1972       C  0.04939994  0.66900474  0.07784738    -0.06400
C1973       C  0.06578663  0.68210845  0.09949372    -0.17700
C1974       C  0.06448894  0.67498697  0.12991571     0.10700
S1975       S  0.01183915  0.62632753  0.06187617    -0.32600
S1976       S  0.08393114  0.69572389  0.15566610    -0.32600
H1977       H  0.08712300  0.67410449  0.17719730     0.28700
H1978       H  0.01680883  0.64155274  0.03551545     0.28700
H1979       H  0.01777117  0.62291937  0.12465370     0.19300
H1980       H  0.07856699  0.69956540  0.09283331     0.19300
O1981       O  0.11332346  0.69121321  0.55241863    -0.75700
O1982       O  0.09602946  0.66446077  0.51494162    -0.54600
C1983       C  0.10648081  0.66704316  0.54075370     0.78100
O1984       O  0.03243073  0.79920051  0.54188606    -0.60300
O1985       O  0.06192635  0.83066996  0.52144762    -0.53300
C1986       C  0.04553912  0.82255927  0.54223055     0.70100
O1987       O  0.03224086  0.71357843  0.54483639    -0.74800
O1988       O  0.04847353  0.67544560  0.51971234    -0.55400
C1989       C  0.03863994  0.68721207  0.54345652     0.76100
O1990       O  0.12256520  0.79135835  0.55917010    -0.60000
O1991       O  0.10944047  0.82600513  0.52593975    -0.53100
C1992       C  0.11892148  0.81779095  0.55106095     0.72700
Zr1993     Zr  0.11411703  0.74284894  0.53738962     2.54700
O1994       O  0.10729872  0.73991225  0.59116808    -0.80500
O1995       O  0.16281408  0.73792937  0.54405961    -0.94000
Zr1996     Zr  0.03412060  0.75544299  0.51332633     2.64700
O1997       O  0.99492184  0.75350943  0.54607788    -0.98900
O1998       O  0.99321213  0.76187894  0.48370917    -0.81000
O1999       O  0.07154643  0.72501443  0.52329115    -0.84300
O2000       O  0.07704101  0.77314206  0.52676392    -2.19000
O2001       O  0.15081383  0.79480786  0.93853675    -0.67700
O2002       O  0.12147658  0.82671535  0.95916447    -0.52300
C2003       C  0.14305941  0.82054216  0.94521770     0.71000
O2004       O  0.05805351  0.70856780  0.90701852    -0.60600
O2005       O  0.06295160  0.67107662  0.93842354    -0.52600
C2006       C  0.06166177  0.68194754  0.91194134     0.72800
O2007       O  0.05339727  0.79834765  0.91035661    -0.72000
O2008       O  0.07353863  0.83039200  0.94088726    -0.50700
C2009       C  0.06385269  0.82264343  0.91553309     0.74200
O2010       O  0.14214439  0.69485410  0.93356190    -0.67400
O2011       O  0.11156982  0.66624163  0.95698489    -0.54600
C2012       C  0.13225476  0.67031052  0.94064798     0.72600
Zr2013     Zr  0.13200735  0.74536368  0.94600816     2.77500
O2014       O  0.13726465  0.74703313  0.89185493    -0.98100
O2015       O  0.18036423  0.73937698  0.95423640    -0.78900
Zr2016     Zr  0.05012059  0.75211187  0.93401433     2.70100
O2017       O  0.03680470  0.75286263  0.88141969    -0.80200
O2018       O  0.00102514  0.75083392  0.93722956    -0.99300
Zr2019     Zr  0.08022313  0.69535613  0.98263871     2.21500
Zr2020     Zr  0.08936344  0.80250827  0.48626928     2.11100
O2021       O  0.09304655  0.77401869  0.93965597    -2.47900
O2022       O  0.08928980  0.72323875  0.93987846    -0.80000
O2023       O  0.12770079  0.77219386  0.99037295    -0.72200
O2024       O  0.03949096  0.72709758  0.46979163    -2.33100
O2025       O  0.12394845  0.71630374  0.98893024    -2.29300
O2026       O  0.04632438  0.78501597  0.47252114    -0.73900
H2027       H  0.07600671  0.78243650  0.54560214     0.78100
H2028       H  0.02360696  0.71634450  0.46481168     0.79200
H2029       H  0.09811031  0.78523622  0.92257236     0.81400
H2030       H  0.13807477  0.70219292  0.99140946     0.79000
H2031       H  0.99000673  0.78265040  0.48321122     0.42000
H2032       H  0.99463873  0.76859005  0.92742487     0.41000
H2033       H  0.01765186  0.75905996  0.88074904     0.40700
H2034       H  0.12583330  0.76318148  0.88501257     0.38600
H2035       H  0.18468079  0.75300213  0.97024221     0.41700
H2036       H  0.17026832  0.75573519  0.53576506     0.36500
H2037       H  0.12572431  0.74073789  0.59976515     0.42600
H2038       H  0.00214148  0.75688210  0.56639425     0.39100
H2039       H  0.15601410  0.75351526  0.88871329     0.44000
H2040       H  0.16844708  0.72311409  0.52973954     0.42700
H2041       H  0.98413004  0.77078767  0.54136567     0.42800
H2042       H  0.99571478  0.73552205  0.92346235     0.43200
O2043       O  0.40460403  0.70518045  0.56981295    -0.75700
O2044       O  0.39359970  0.66678584  0.54208371    -0.54600
C2045       C  0.39844720  0.67902792  0.56732771     0.78100
O2046       O  0.32432923  0.79843575  0.53964171    -0.60300
O2047       O  0.35418636  0.82579124  0.51392709    -0.53300
C2048       C  0.33354588  0.82295350  0.53064349     0.70100
O2049       O  0.32276243  0.69549492  0.54826908    -0.74800
O2050       O  0.34846779  0.66317199  0.03604971    -0.55400
C2051       C  0.33004926  0.66920838  0.54251581     0.76100
O2052       O  0.43299716  0.78956608  0.54742657    -0.60000
O2053       O  0.40253790  0.82150014  0.53196367    -0.53100
C2054       C  0.41660400  0.80991971  0.55313533     0.72700
Zr2055     Zr  0.42046822  0.74093124  0.53622624     2.54700
O2056       O  0.44503227  0.73985930  0.58374238    -0.80500
O2057       O  0.46460226  0.71909485  0.52691647    -0.94000
Zr2058     Zr  0.33657990  0.74627831  0.53386575     2.64700
O2059       O  0.33769261  0.74945427  0.58820700    -0.98900
O2060       O  0.28743382  0.74845778  0.53412356    -0.81000
O2061       O  0.37719691  0.71978416  0.53585218    -0.84300
O2062       O  0.37949633  0.76849009  0.53400898    -2.19000
O2063       O  0.42998046  0.77724804  0.93431956    -0.67700
O2064       O  0.40280271  0.81373882  0.94343797    -0.52300
C2065       C  0.41798501  0.79973170  0.92526181     0.71000
O2066       O  0.31857234  0.69364251  0.94531636    -0.60600
O2067       O  0.32911877  0.66854778  0.98618124    -0.52600
C2068       C  0.32146806  0.66926978  0.95930467     0.72800
O2069       O  0.31726737  0.79793146  0.95213050    -0.72000
O2070       O  0.35242669  0.82535994  0.96761812    -0.50700
C2071       C  0.32915736  0.82233917  0.95582810     0.74200
O2072       O  0.39569359  0.68932247  0.92024737    -0.67400
O2073       O  0.38108616  0.65794388  0.95544506    -0.54600
C2074       C  0.38639170  0.66531385  0.92813284     0.72600
Zr2075     Zr  0.40532579  0.73406527  0.94168676     2.77500
O2076       O  0.38655844  0.74379801  0.89209701    -0.98100
O2077       O  0.44640917  0.71601816  0.91866734    -0.78900
Zr2078     Zr  0.32684079  0.74536326  0.96103055     2.70100
O2079       O  0.31147739  0.75076151  0.90951242    -0.80200
O2080       O  0.27980334  0.74454270  0.97677679    -0.99300
Zr2081     Zr  0.37134994  0.68800975  0.99953177     2.21500
Zr2082     Zr  0.38390805  0.79405640  0.99060380     2.11100
O2083       O  0.36907156  0.76662810  0.94909793    -2.47900
O2084       O  0.36384835  0.71403168  0.95510155    -0.80000
O2085       O  0.42113283  0.76304690  0.98151961    -0.72200
O2086       O  0.33304765  0.71958569  0.00644875    -2.33100
O2087       O  0.41411673  0.70575619  0.98537794    -2.29300
O2088       O  0.34043751  0.77383488  0.00211870    -0.73900
H2089       H  0.37734511  0.78029503  0.55122585     0.78100
H2090       H  0.31639102  0.71013797  0.01132178     0.79200
H2091       H  0.36647424  0.77853242  0.93164675     0.81400
H2092       H  0.42599026  0.68985262  0.98138433     0.79000
H2093       H  0.28271127  0.76203147  0.51788420     0.42000
H2094       H  0.27085156  0.75952872  0.96455260     0.41000
H2095       H  0.30508292  0.73176798  0.90368391     0.40700
H2096       H  0.36676944  0.74184237  0.89406841     0.38600
H2097       H  0.45123667  0.69885401  0.93050296     0.41700
H2098       H  0.46408602  0.70056817  0.53747110     0.36500
H2099       H  0.45853153  0.75515845  0.58255811     0.42600
H2100       H  0.33267419  0.73031214  0.59540943     0.39100
H2101       H  0.39222998  0.72761328  0.87953082     0.44000
H2102       H  0.47768910  0.73014313  0.53852939     0.42700
H2103       H  0.35709686  0.75096539  0.59327665     0.42800
H2104       H  0.27276830  0.72655501  0.96872456     0.43200
O2105       O  0.16944985  0.54560360  0.65656571    -0.75700
O2106       O  0.13947116  0.51818092  0.63108164    -0.54600
C2107       C  0.14494703  0.53700783  0.65028915     0.78100
O2108       O  0.25544077  0.56041355  0.54453921    -0.60300
O2109       O  0.28915842  0.53595696  0.56798805    -0.53300
C2110       C  0.27949757  0.55874947  0.55494143     0.70100
O2111       O  0.17556519  0.56422646  0.56514933    -0.74800
O2112       O  0.14077491  0.53513016  0.57560964    -0.55400
C2113       C  0.15078081  0.55994851  0.57098887     0.76100
O2114       O  0.26857783  0.54167469  0.65170991    -0.60000
O2115       O  0.29564303  0.51828000  0.61895099    -0.53100
C2116       C  0.29240007  0.53458265  0.64087933     0.72700
Zr2117     Zr  0.21807472  0.53238935  0.64196888     2.54700
O2118       O  0.21922807  0.58346509  0.64921345    -0.80500
O2119       O  0.22174118  0.52459957  0.69572716    -0.94000
Zr2120     Zr  0.21356228  0.53580020  0.55141527     2.64700
O2121       O  0.21278093  0.58146196  0.52516488    -0.98900
O2122       O  0.20042943  0.52724446  0.49983391    -0.81000
O2123       O  0.19496530  0.52975700  0.59758005    -0.84300
O2124       O  0.24046343  0.53482610  0.59544048    -2.19000
O2125       O  0.26990796  0.94640382  0.65637128    -0.67700
O2126       O  0.29692278  0.97072510  0.62383528    -0.52300
C2127       C  0.29340872  0.95410057  0.64618938     0.71000
O2128       O  0.18020699  0.92179910  0.57234384    -0.60600
O2129       O  0.14409578  0.94929204  0.58353382    -0.52600
C2130       C  0.15544493  0.92473909  0.57949582     0.72800
O2131       O  0.25790226  0.92858759  0.54561350    -0.72000
O2132       O  0.29150076  0.95541860  0.56514962    -0.50700
C2133       C  0.28257868  0.93257477  0.55274938     0.74200
O2134       O  0.17205519  0.94334296  0.66183932    -0.67400
O2135       O  0.14063005  0.96711977  0.63327319    -0.54600
C2136       C  0.14712397  0.95044649  0.65452626     0.72600
Zr2137     Zr  0.22056795  0.95417133  0.64487803     2.77500
O2138       O  0.22258608  0.90259304  0.64261016    -0.98100
O2139       O  0.22363577  0.95270728  0.69919023    -0.78900
Zr2140     Zr  0.21487046  0.95146158  0.55364684     2.70100
O2141       O  0.21864659  0.90542478  0.52930010    -0.80200
O2142       O  0.19430045  0.95646385  0.50426177    -0.99300
Zr2143     Zr  0.16644772  0.99338489  0.60039474     2.21500
Zr2144     Zr  0.26670736  0.49251658  0.58952675     2.11100
O2145       O  0.24235654  0.95281106  0.59735117    -2.47900
O2146       O  0.19440586  0.95301100  0.60125232    -0.80000
O2147       O  0.24421781  0.49023750  0.63742843    -0.72200
O2148       O  0.18520093  0.49552851  0.54783321    -2.33100
O2149       O  0.19365903  0.99579574  0.64515195    -2.29300
O2150       O  0.24148702  0.49481623  0.54426083    -0.73900
H2151       H  0.25064101  0.55192175  0.59791277     0.78100
H2152       H  0.17113747  0.49669707  0.53286154     0.79200
H2153       H  0.25394149  0.93631052  0.59896107     0.81400
H2154       H  0.18356111  0.99621890  0.66358421     0.79000
H2155       H  0.18187065  0.53512600  0.49791746     0.42000
H2156       H  0.20437426  0.94340569  0.49108974     0.41000
H2157       H  0.19997073  0.89985808  0.52417847     0.40700
H2158       H  0.22995263  0.89655360  0.66227149     0.38600
H2159       H  0.21961253  0.93279475  0.70463103     0.41700
H2160       H  0.20317464  0.52749154  0.70338072     0.36500
H2161       H  0.23538974  0.58979318  0.63810876     0.42600
H2162       H  0.21105470  0.59605225  0.54086267     0.39100
H2163       H  0.20347184  0.89663818  0.64303409     0.44000
H2164       H  0.23185037  0.54118689  0.70306684     0.42700
H2165       H  0.19533429  0.58237551  0.51434302     0.42800
H2166       H  0.17638830  0.94759754  0.50652822     0.43200
O2167       O  0.18479124  0.54687605  0.94430425    -0.75700
O2168       O  0.15461292  0.53690078  0.90889977    -0.54600
C2169       C  0.16420689  0.55379503  0.92864450     0.78100
O2170       O  0.27233361  0.54031453  0.81317935    -0.60300
O2171       O  0.30223344  0.51670937  0.84364615    -0.53300
C2172       C  0.29683003  0.53252442  0.82117723     0.70100
O2173       O  0.17517368  0.54352750  0.82028848    -0.74800
O2174       O  0.14706680  0.51993639  0.85227875    -0.55400
C2175       C  0.15128938  0.53619275  0.82982725     0.76100
O2176       O  0.26912682  0.56351069  0.92293330    -0.60000
O2177       O  0.30236105  0.53575459  0.90289126    -0.53100
C2178       C  0.29339379  0.55940402  0.91453698     0.72700
Zr2179     Zr  0.22830880  0.53757763  0.92293385     2.54700
O2180       O  0.21979944  0.58843240  0.91952739    -0.80500
O2181       O  0.24415416  0.54346950  0.97398536    -0.94000
Zr2182     Zr  0.22424923  0.53260882  0.83223770     2.64700
O2183       O  0.22592635  0.58397174  0.82665672    -0.98900
O2184       O  0.22033392  0.52404236  0.77882216    -0.81000
O2185       O  0.20125415  0.53619959  0.87910574    -0.84300
O2186       O  0.25066808  0.53473043  0.87614266    -2.19000
O2187       O  0.26773398  0.94376730  0.94995413    -0.67700
O2188       O  0.29944279  0.95472987  0.91556090    -0.52300
C2189       C  0.29017404  0.93863540  0.93682273     0.71000
O2190       O  0.17619954  0.93132583  0.83497443    -0.60600
O2191       O  0.14649648  0.96242347  0.85676028    -0.52600
C2192       C  0.15165568  0.94070927  0.84097767     0.72800
O2193       O  0.27443060  0.93447440  0.82862770    -0.72000
O2194       O  0.30505849  0.96157399  0.85390167    -0.50700
C2195       C  0.29898894  0.94289287  0.83449165     0.74200
O2196       O  0.18160615  0.94988053  0.94649306    -0.67400
O2197       O  0.15947420  0.95071709  0.90320984    -0.54600
C2198       C  0.16648304  0.93794110  0.92755733     0.72600
Zr2199     Zr  0.22585603  0.96557586  0.93359990     2.77500
O2200       O  0.22583688  0.91981085  0.95927997    -0.98100
O2201       O  0.22494362  0.99113911  0.98015761    -0.78900
Zr2202     Zr  0.22616406  0.94251566  0.84629251     2.70100
O2203       O  0.22790449  0.89379721  0.86472233    -0.80200
O2204       O  0.22569223  0.92472389  0.79533248    -0.99300
Zr2205     Zr  0.17626900  0.99425235  0.87843344     2.21500
Zr2206     Zr  0.27834470  0.99271381  0.88352977     2.11100
O2207       O  0.25076088  0.95183435  0.89074462    -2.47900
O2208       O  0.20598585  0.95927987  0.88828211    -0.80000
O2209       O  0.25261128  0.00623905  0.92537879    -0.72200
O2210       O  0.20133857  0.98359651  0.83357743    -2.33100
O2211       O  0.19856839  0.00654421  0.92344747    -2.29300
O2212       O  0.25425566  0.98212039  0.83788843    -0.73900
H2213       H  0.26140845  0.55120542  0.87219411     0.78100
H2214       H  0.18990076  0.97921452  0.81677324     0.79200
H2215       H  0.26042849  0.93419859  0.89366278     0.81400
H2216       H  0.18634966  0.01121118  0.93953160     0.79000
H2217       H  0.21913369  0.54319348  0.76964312     0.42000
H2218       H  0.21282937  0.93734685  0.78449513     0.41000
H2219       H  0.21231380  0.88452639  0.85509430     0.40700
H2220       H  0.21635275  0.90649446  0.94599503     0.38600
H2221       H  0.24340846  0.99870473  0.98199756     0.41700
H2222       H  0.24814733  0.56393023  0.97570201     0.36500
H2223       H  0.21562253  0.59198287  0.89815897     0.42600
H2224       H  0.22925504  0.58716582  0.80508431     0.39100
H2225       H  0.21440538  0.92183420  0.97724453     0.44000
H2226       H  0.26206351  0.53392601  0.97482437     0.42700
H2227       H  0.20709522  0.59055538  0.82978047     0.42800
H2228       H  0.21634641  0.90629543  0.79675387     0.43200
O2229       O  0.01322885  0.56737769  0.67795880    -0.75700
O2230       O  0.04502232  0.59400469  0.70179005    -0.54600
C2231       C  0.03828049  0.57439047  0.68400977     0.78100
O2232       O  0.42002454  0.68370187  0.70392576    -0.60300
O2233       O  0.39184414  0.64819771  0.70906868    -0.53300
C2234       C  0.40155320  0.66829103  0.69301554     0.70100
O2235       O  0.99618466  0.66206864  0.66644923    -0.74800
O2236       O  0.03529158  0.64634163  0.68787304    -0.55400
C2237       C  0.02136684  0.65560558  0.66504313     0.76100
O2238       O  0.41778695  0.57585513  0.67149086    -0.60000
O2239       O  0.39252046  0.59340241  0.70963392    -0.53100
C2240       C  0.39476651  0.58037219  0.68508875     0.72700
Zr2241     Zr  0.46748549  0.58608819  0.67998419     2.54700
O2242       O  0.46038794  0.59843341  0.62761111    -0.80500
O2243       O  0.46922073  0.53553585  0.66923962    -0.94000
Zr2244     Zr  0.46771736  0.67097995  0.70436039     2.64700
O2245       O  0.46326515  0.71139852  0.66972114    -0.98900
O2246       O  0.48434405  0.71436446  0.72674623    -0.81000
O2247       O  0.98746252  0.62599024  0.69633866    -0.84300
O2248       O  0.44394539  0.62748830  0.69570540    -2.19000
O2249       O  0.42700446  0.54874012  0.77709548    -0.67700
O2250       O  0.39578782  0.58160408  0.76098354    -0.52300
C2251       C  0.40210881  0.55820477  0.77343047     0.71000
O2252       O  0.01798740  0.64528488  0.81121474    -0.60600
O2253       O  0.04872650  0.64191828  0.77389545    -0.52600
C2254       C  0.04229603  0.64345721  0.80180339     0.72800
O2255       O  0.43783201  0.64312133  0.81836539    -0.72000
O2256       O  0.40150830  0.63078078  0.79022890    -0.50700
C2257       C  0.41308535  0.63613135  0.81550335     0.74200
O2258       O  0.02408840  0.56336417  0.79059626    -0.67400
O2259       O  0.04992866  0.58985072  0.75880502    -0.54600
C2260       C  0.04725311  0.57177913  0.77998791     0.72600
Zr2261     Zr  0.47564381  0.56352836  0.76447351     2.77500
O2262       O  0.47911356  0.54239012  0.81416636    -0.98100
O2263       O  0.47890032  0.51673174  0.74211864    -0.78900
Zr2264     Zr  0.47731355  0.64638665  0.78766832     2.70100
O2265       O  0.48659816  0.65711440  0.83990282    -0.80200
O2266       O  0.48655667  0.69691173  0.79203163    -0.99300
Zr2267     Zr  0.01975352  0.62201734  0.73470912     2.21500
Zr2268     Zr  0.42136205  0.61842056  0.74131130     2.11100
O2269       O  0.45157933  0.60451311  0.78010582    -2.47900
O2270       O  0.99843995  0.61403591  0.78138297    -0.80000
O2271       O  0.44515429  0.57621427  0.72580149    -0.72200
O2272       O  0.99709775  0.66531961  0.74551086    -2.33100
O2273       O  0.99604746  0.57764871  0.73372333    -2.29300
O2274       O  0.44531620  0.66083157  0.75051203    -0.73900
H2275       H  0.43067637  0.62815893  0.68021612     0.78100
H2276       H  0.00996310  0.68051403  0.74690807     0.79200
H2277       H  0.44267046  0.59760873  0.79777636     0.81400
H2278       H  0.00814586  0.56165748  0.73123279     0.79000
H2279       H  0.46771440  0.72472735  0.73265779     0.42000
H2280       H  0.47129051  0.70465393  0.80379933     0.41000
H2281       H  0.48992786  0.63843102  0.84956768     0.40700
H2282       H  0.47221256  0.55726910  0.82771275     0.38600
H2283       H  0.46121307  0.51407492  0.73219183     0.41700
H2284       H  0.97484200  0.52640679  0.67072565     0.36500
H2285       H  0.94269698  0.59174617  0.63566492     0.42600
H2286       H  0.46725727  0.70483500  0.64923268     0.39100
H2287       H  0.46517593  0.52748933  0.81464016     0.44000
H2288       H  0.45094571  0.52856053  0.67414355     0.42700
H2289       H  0.44398305  0.71711954  0.66930335     0.42800
H2290       H  0.50246354  0.69821362  0.80540367     0.43200
O2291       O  0.00445708  0.84017039  0.66113524    -0.75700
O2292       O  0.04226670  0.85075490  0.68757056    -0.54600
C2293       C  0.02942191  0.84658361  0.66279066     0.78100
O2294       O  0.42033073  0.91926302  0.68146524    -0.60300
O2295       O  0.39332443  0.89210639  0.71124790    -0.53300
C2296       C  0.39684265  0.91129296  0.69125534     0.70100
O2297       O  0.01559370  0.92517076  0.68089866    -0.74800
O2298       O  0.04703735  0.89993003  0.70771300    -0.55400
C2299       C  0.04051063  0.91841894  0.68820246     0.76100
O2300       O  0.42494187  0.80438685  0.69020702    -0.60000
O2301       O  0.39526162  0.83882568  0.69725290    -0.53100
C2302       C  0.40535870  0.81952799  0.68048682     0.72700
Zr2303     Zr  0.47118680  0.82000799  0.68729695     2.54700
O2304       O  0.45934176  0.80440682  0.63730337    -0.80500
O2305       O  0.49129556  0.77267646  0.68638632    -0.94000
Zr2306     Zr  0.46910255  0.90719315  0.69107000     2.64700
O2307       O  0.46772567  0.90631303  0.63667037    -0.98900
O2308       O  0.46668513  0.95876542  0.69283184    -0.81000
O2309       O  0.98942058  0.86937294  0.70244779    -0.84300
O2310       O  0.44559997  0.86321348  0.69124294    -2.19000
O2311       O  0.43311994  0.79894050  0.78256546    -0.67700
O2312       O  0.40303133  0.83418326  0.78144663    -0.52300
C2313       C  0.41488256  0.81354191  0.79546634     0.71000
O2314       O  0.02476437  0.91755135  0.79900670    -0.60600
O2315       O  0.05166418  0.89500549  0.76525210    -0.52600
C2316       C  0.04836991  0.91115489  0.78764236     0.72800
O2317       O  0.42782254  0.91512268  0.79522929    -0.72000
O2318       O  0.39651211  0.88973049  0.76919489    -0.50700
C2319       C  0.40295156  0.90820036  0.78851172     0.74200
O2320       O  0.01951083  0.82988256  0.80599962    -0.67400
O2321       O  0.05180900  0.84396931  0.77358018    -0.54600
C2322       C  0.04356090  0.83781707  0.80008444     0.72600
Zr2323     Zr  0.47829083  0.81571418  0.77390883     2.77500
O2324       O  0.48037485  0.80310052  0.82674021    -0.98100
O2325       O  0.49005103  0.76596484  0.76691403    -0.78900
Zr2326     Zr  0.47605086  0.90205248  0.77963832     2.70100
O2327       O  0.48001771  0.89786891  0.83377667    -0.80200
O2328       O  0.47746927  0.95352439  0.78285378    -0.99300
Zr2329     Zr  0.02314648  0.86688416  0.73555359     2.21500
Zr2330     Zr  0.42202014  0.85966459  0.73785556     2.11100
O2331       O  0.45232764  0.85847296  0.77994533    -2.47900
O2332       O  0.00020286  0.86510025  0.78129436    -0.80000
O2333       O  0.44735399  0.81643485  0.73320129    -0.72200
O2334       O  0.99823340  0.91068651  0.74071368    -2.33100
O2335       O  0.00219082  0.82181031  0.73439674    -2.29300
O2336       O  0.44626843  0.90367906  0.73777369    -0.73900
H2337       H  0.43347120  0.86464684  0.67445740     0.78100
H2338       H  0.00985973  0.92701963  0.74049235     0.79200
H2339       H  0.44318497  0.85819569  0.79894358     0.81400
H2340       H  0.01498481  0.80640492  0.73183307     0.79000
H2341       H  0.96047644  0.97032783  0.68399858     0.42000
H2342       H  0.46079041  0.96011384  0.77255443     0.41000
H2343       H  0.46136943  0.89449921  0.84082937     0.40700
H2344       H  0.46704817  0.81563378  0.83665001     0.38600
H2345       H  0.50782409  0.76352186  0.77686620     0.41700
H2346       H  0.50866565  0.77517880  0.67578932     0.36500
H2347       H  0.95374386  0.83890986  0.63518253     0.42600
H2348       H  0.45088601  0.89617157  0.63175822     0.39100
H2349       H  0.47301961  0.78372427  0.82819827     0.44000
H2350       H  0.47992109  0.76231313  0.67202830     0.42700
H2351       H  0.46405276  0.92623059  0.63062362     0.42800
H2352       H  0.47417248  0.95758085  0.80422636     0.43200
C2353       C  0.32307696  0.93115450  0.81868889    -0.06500
C2354       C  0.33634222  0.94824813  0.79743603    -0.17600
C2355       C  0.36340073  0.94284630  0.78894632     0.10700
C2356       C  0.37863548  0.92099043  0.80322597    -0.06400
C2357       C  0.36503244  0.90401676  0.82427848    -0.17700
C2358       C  0.33757211  0.90810246  0.83112704     0.10700
S2359       S  0.37682847  0.96314750  0.75825569    -0.32600
S2360       S  0.32158295  0.88232691  0.85493943    -0.32600
H2361       H  0.29567365  0.88563171  0.84237262     0.28700
H2362       H  0.40399992  0.96102616  0.76731578     0.28700
H2363       H  0.32553633  0.96601234  0.78742145     0.19300
H2364       H  0.37520772  0.88605859  0.83412462     0.19300
C2365       C  0.12656081  0.92802371  0.82838340    -0.06500
C2366       C  0.12388779  0.92700950  0.79740294    -0.17600
C2367       C  0.09848472  0.92369185  0.78372511     0.10700
C2368       C  0.07456906  0.92073955  0.80123722    -0.06400
C2369       C  0.07721099  0.92216439  0.83228409    -0.17700
C2370       C  0.10266981  0.92549952  0.84598129     0.10700
S2371       S  0.09710281  0.92501477  0.74356819    -0.32600
S2372       S  0.10415921  0.92641073  0.88626317    -0.32600
H2373       H  0.07663805  0.92164706  0.89181236     0.28700
H2374       H  0.12452463  0.93056079  0.73815396     0.28700
H2375       H  0.14164177  0.93056397  0.78384491     0.19300
H2376       H  0.05932308  0.91997010  0.84589980     0.19300
C2377       C  0.37746054  0.54399667  0.78529239    -0.06500
C2378       C  0.35550234  0.53969037  0.76536584    -0.17600
C2379       C  0.32841827  0.53766679  0.77539557     0.10700
C2380       C  0.32241582  0.54174748  0.80597119    -0.06400
C2381       C  0.34441023  0.54697251  0.82537316    -0.17700
C2382       C  0.37131210  0.54655273  0.81577023     0.10700
S2383       S  0.30283397  0.52886418  0.74847506    -0.32600
S2384       S  0.39711512  0.54988863  0.84368838    -0.32600
H2385       H  0.41542032  0.53152036  0.82939845     0.28700
H2386       H  0.28366378  0.54830503  0.75947924     0.28700
H2387       H  0.35945735  0.53874664  0.74157040     0.19300
H2388       H  0.34072518  0.54957754  0.84908792     0.19300
C2389       C  0.07358324  0.56166450  0.79285508    -0.06500
C2390       C  0.09501323  0.58131197  0.79434436    -0.17600
C2391       C  0.12090334  0.57363731  0.80495944     0.10700
C2392       C  0.12589610  0.54552148  0.81434410    -0.06400
C2393       C  0.10458053  0.52579759  0.81250385    -0.17700
C2394       C  0.07886319  0.53338856  0.80157244     0.10700
S2395       S  0.15638641  0.07795792  0.76930168    -0.32600
S2396       S  0.05421283  0.50577517  0.79794129    -0.32600
H2397       H  0.04439535  0.51534138  0.77004310     0.28700
H2398       H  0.14111070  0.10115551  0.75837174     0.28700
H2399       H  0.09134977  0.60305779  0.78743764     0.19300
H2400       H  0.10805443  0.50399529  0.81951848     0.19300
C2401       C  0.31899727  0.94323770  0.66005710    -0.06500
C2402       C  0.34089884  0.96200397  0.66317208    -0.17600
C2403       C  0.36673395  0.95257990  0.67232129     0.10700
C2404       C  0.37113082  0.92348847  0.67875315    -0.06400
C2405       C  0.34925073  0.90475335  0.67517187    -0.17700
C2406       C  0.32357046  0.91415996  0.66560728     0.10700
S2407       S  0.39282529  0.97884372  0.67534867    -0.32600
S2408       S  0.29744204  0.88858212  0.65846402    -0.32600
H2409       H  0.31373109  0.86412389  0.66183287     0.28700
H2410       H  0.40552543  0.96686651  0.70062093     0.28700
H2411       H  0.33784486  0.98435515  0.65830358     0.19300
H2412       H  0.35242247  0.88233898  0.67955162     0.19300
C2413       C  0.12237176  0.94037157  0.66995488    -0.06500
C2414       C  0.10394367  0.96165480  0.67946982    -0.17600
C2415       C  0.07599254  0.95666056  0.68251310     0.10700
C2416       C  0.06525079  0.93021300  0.67398379    -0.06400
C2417       C  0.08373671  0.90940037  0.66363931    -0.17700
C2418       C  0.11178225  0.91360402  0.66333305     0.10700
S2419       S  0.05594520  0.98367508  0.70055004    -0.32600
S2420       S  0.13313452  0.88332714  0.65640290    -0.32600
H2421       H  0.15556654  0.89350358  0.67216922     0.28700
H2422       H  0.03104567  0.97549616  0.68847696     0.28700
H2423       H  0.11144535  0.98270257  0.68409626     0.19300
H2424       H  0.07653258  0.88828341  0.65907982     0.19300
C2425       C  0.36838077  0.56973545  0.67313364    -0.06500
C2426       C  0.36870604  0.54740396  0.65298227    -0.17600
C2427       C  0.34477217  0.53491061  0.64288091     0.10700
C2428       C  0.31882186  0.54551299  0.65277192    -0.06400
C2429       C  0.31857185  0.56786838  0.67294363    -0.17700
C2430       C  0.34261223  0.57994117  0.68342631     0.10700
S2431       S  0.34921327  0.50557878  0.61712271    -0.32600
S2432       S  0.33880380  0.60909590  0.70923542    -0.32600
H2433       H  0.31254209  0.60265297  0.71896523     0.28700
H2434       H  0.37660874  0.49955854  0.62309484     0.28700
H2435       H  0.38803835  0.53933733  0.64537943     0.19300
H2436       H  0.29929261  0.57638687  0.68017135     0.19300
C2437       C  0.11966078  0.54972260  0.66298283    -0.06500
C2438       C  0.10359519  0.56520916  0.64249340    -0.17600
C2439       C  0.07568461  0.56947811  0.64629828     0.10700
C2440       C  0.06263537  0.55932863  0.67214659    -0.06400
C2441       C  0.07858426  0.54375177  0.69297355    -0.17700
C2442       C  0.10643146  0.53819877  0.68833227     0.10700
S2443       S  0.05789163  0.58802035  0.61694952    -0.32600
S2444       S  0.12365122  0.51580171  0.71529038    -0.32600
H2445       H  0.14990782  0.52448424  0.70807230     0.28700
H2446       H  0.03215407  0.57778214  0.62422554     0.28700
H2447       H  0.11264748  0.57264432  0.62210415     0.19300
H2448       H  0.06940811  0.53662471  0.71365717     0.19300
C2449       C  0.32044445  0.85100942  0.53829354    -0.06500
C2450       C  0.32552262  0.87433426  0.51882941    -0.17600
C2451       C  0.31591553  0.90187259  0.52442954     0.10700
C2452       C  0.29991126  0.90688243  0.54972430    -0.06400
C2453       C  0.29456531  0.88387785  0.56920958    -0.17700
C2454       C  0.30494454  0.85635688  0.56415349     0.10700
S2455       S  0.32387326  0.92926348  0.49760523    -0.32600
S2456       S  0.29772370  0.82931390  0.59149994    -0.32600
H2457       H  0.32441024  0.81872917  0.59246193     0.28700
H2458       H  0.31910609  0.95257321  0.51625227     0.28700
H2459       H  0.33712190  0.87123938  0.49858391     0.19300
H2460       H  0.28157535  0.88729823  0.58834701     0.19300
C2461       C  0.29389181  0.58702774  0.55532485    -0.06500
C2462       C  0.27758015  0.61210771  0.55494757    -0.17600
C2463       C  0.28840980  0.63962291  0.55472869     0.10700
C2464       C  0.31656220  0.64315916  0.55502716    -0.06400
C2465       C  0.33283299  0.61826425  0.55848583    -0.17700
C2466       C  0.32203765  0.59064925  0.55796654     0.10700
S2467       S  0.26528185  0.66922915  0.55184037    -0.32600
S2468       S  0.34546659  0.56122433  0.55799260    -0.32600
H2469       H  0.33147260  0.54604297  0.53597916     0.28700
H2470       H  0.27878798  0.68527406  0.57352534     0.28700
H2471       H  0.25580734  0.61051188  0.55459335     0.19300
H2472       H  0.35463333  0.62023887  0.55892608     0.19300
C2473       C  0.31642303  0.85016410  0.94709193    -0.06500
C2474       C  0.33269068  0.86989786  0.93164707    -0.17600
C2475       C  0.32637309  0.89915576  0.93014137     0.10700
C2476       C  0.30246692  0.90963308  0.94351344    -0.06400
C2477       C  0.28677925  0.88981122  0.95987619    -0.17700
C2478       C  0.29319488  0.86070043  0.96146733     0.10700
S2479       S  0.35071949  0.92210997  0.91279158    -0.32600
S2480       S  0.27189436  0.83834776  0.98390958    -0.32600
H2481       H  0.27051661  0.81682691  0.96240709     0.28700
H2482       H  0.34735302  0.94396243  0.93375605     0.28700
H2483       H  0.35144508  0.86255480  0.92192942     0.19300
H2484       H  0.26887158  0.89670134  0.97147846     0.19300
C2485       C  0.30983682  0.58548497  0.91826600    -0.06500
C2486       C  0.32458930  0.58796773  0.94460969    -0.17600
C2487       C  0.32934621  0.61455550  0.95781304     0.10700
C2488       C  0.31822221  0.64029194  0.94477126    -0.06400
C2489       C  0.30453575  0.63761354  0.91745173    -0.17700
C2490       C  0.30113436  0.61096447  0.90381337     0.10700
S2491       S  0.34919062  0.61381103  0.99193570    -0.32600
S2492       S  0.28365381  0.61029864  0.86849849    -0.32600
H2493       H  0.29620909  0.58504169  0.85896712     0.28700
H2494       H  0.35413389  0.58442823  0.99396425     0.28700
H2495       H  0.33057170  0.56862302  0.95615278     0.19300
H2496       H  0.29589354  0.65631667  0.90680741     0.19300
C2497       C  0.41839375  0.80576958  0.89211064    -0.06500
C2498       C  0.42456992  0.78278472  0.87321565    -0.17600
C2499       C  0.41905120  0.78348978  0.84251909     0.10700
C2500       C  0.41143420  0.80930189  0.82848294    -0.06400
C2501       C  0.40752833  0.83310898  0.84686348    -0.17700
C2502       C  0.41005923  0.83154212  0.87830880     0.10700
S2503       S  0.42233993  0.75047702  0.82257560    -0.32600
S2504       S  0.40506453  0.86377969  0.89892354    -0.32600
H2505       H  0.42514084  0.85768488  0.92040058     0.28700
H2506       H  0.40233911  0.75724966  0.80119065     0.28700
H2507       H  0.43214815  0.76302170  0.88261553     0.19300
H2508       H  0.40457994  0.85349568  0.83642909     0.19300
C2509       C  0.40921698  0.81455340  0.58535269    -0.06500
C2510       C  0.40498780  0.79007499  0.60292654    -0.17600
C2511       C  0.39968412  0.79132446  0.63356656     0.10700
C2512       C  0.39873551  0.81777935  0.64797989    -0.06400
C2513       C  0.39945260  0.84255829  0.63001143    -0.17700
C2514       C  0.40489693  0.84123342  0.59898353     0.10700
S2515       S  0.39561296  0.75816733  0.65343645    -0.32600
S2516       S  0.40785951  0.87421123  0.57874900    -0.32600
H2517       H  0.42763676  0.86454015  0.55865633     0.28700
H2518       H  0.38056746  0.76968539  0.67715279     0.28700
H2519       H  0.40569587  0.76945278  0.59264954     0.19300
H2520       H  0.39806283  0.86315971  0.64046654     0.19300
C2521       C  0.38229296  0.64632436  0.90254308    -0.06500
C2522       C  0.40247146  0.62592936  0.89816773    -0.17600
C2523       C  0.41160106  0.61994324  0.86923613     0.10700
C2524       C  0.39859956  0.63285380  0.84410627    -0.06400
C2525       C  0.37484719  0.64817726  0.84837075    -0.17700
C2526       C  0.36713766  0.65613031  0.87713141     0.10700
S2527       S  0.44218338  0.59897963  0.86520756    -0.32600
S2528       S  0.34062171  0.68258945  0.87820471    -0.32600
H2529       H  0.34920276  0.69659677  0.90361763     0.28700
H2530       H  0.44361224  0.58895013  0.89487508     0.28700
H2531       H  0.41412660  0.61853672  0.91727636     0.19300
H2532       H  0.36465936  0.65767215  0.82921376     0.19300
C2533       C  0.39737247  0.66436451  0.59632972    -0.06500
C2534       C  0.37313694  0.66583509  0.61280851    -0.17600
C2535       C  0.37332531  0.66714644  0.64434881     0.10700
C2536       C  0.39831165  0.66764301  0.65974307    -0.06400
C2537       C  0.42215034  0.66555263  0.64284039    -0.18300
C2538       C  0.42188392  0.66268221  0.61190731     0.10700
S2539       S  0.34135605  0.67150866  0.66299247    -0.32600
S2540       S  0.45334905  0.66098063  0.59170427    -0.32600
H2541       H  0.47010762  0.65755976  0.61679449     0.28700
H2542       H  0.35142823  0.68517072  0.68843432     0.28700
H2543       H  0.35416112  0.66881988  0.60105973     0.19300
H2544       H  0.44142207  0.66562519  0.65403331     0.19300
C2545       C  0.15888237  0.84658727  0.93886194    -0.06500
C2546       C  0.16190685  0.86458024  0.96368673    -0.17600
C2547       C  0.16139328  0.89419460  0.96072614     0.10700
C2548       C  0.16087980  0.90699230  0.93202792    -0.06400
C2549       C  0.16062978  0.88892197  0.90702107    -0.17700
C2550       C  0.15928435  0.85916108  0.91013187     0.10700
S2551       S  0.15905941  0.91436437  0.99464913    -0.32600
S2552       S  0.15717722  0.83839529  0.87669718    -0.32600
H2553       H  0.16950601  0.81407905  0.88926004     0.28700
H2554       H  0.14222363  0.93576133  0.98248014     0.28700
H2555       H  0.16088033  0.85553747  0.98603648     0.19300
H2556       H  0.16167532  0.89795967  0.88477164     0.19300
C2557       C  0.14545617  0.64363388  0.93181511    -0.06500
C2558       C  0.13141876  0.62626765  0.91179969    -0.17600
C2559       C  0.13514670  0.59667444  0.91168313     0.10700
C2560       C  0.15413952  0.58377323  0.93148311    -0.06400
C2561       C  0.16793697  0.60150466  0.95162305    -0.17700
C2562       C  0.16410121  0.63089455  0.95170208     0.10700
S2563       S  0.11351035  0.57684907  0.88732127    -0.32600
S2564       S  0.18197428  0.65086221  0.97961047    -0.32600
H2565       H  0.18334812  0.67601067  0.96263895     0.28700
H2566       H  0.10700814  0.55663436  0.90940733     0.28700
H2567       H  0.11582442  0.63562336  0.89774349     0.19300
H2568       H  0.18245324  0.59258866  0.96733106     0.19300
C2569       C  0.14161002  0.89740170  0.58390616    -0.06500
C2570       C  0.15803417  0.87330193  0.59087888    -0.17600
C2571       C  0.14957639  0.84563348  0.58479941     0.10700
C2572       C  0.12458435  0.84210769  0.57074453    -0.06400
C2573       C  0.10700102  0.86591753  0.56790144    -0.17700
C2574       C  0.11483372  0.89318870  0.57531547     0.10700
S2575       S  0.17216520  0.81586963  0.59106875    -0.32600
S2576       S  0.09106198  0.92180327  0.56920612    -0.32600
H2577       H  0.09682293  0.93470316  0.59673428     0.28700
H2578       H  0.19160180  0.83071825  0.60758401     0.28700
H2579       H  0.17840862  0.87629346  0.59902810     0.19300
H2580       H  0.08794714  0.86406902  0.55653456     0.19300
C2581       C  0.11187415  0.63952361  0.55641428    -0.06500
C2582       C  0.13354106  0.63761496  0.57641509    -0.17600
C2583       C  0.14459707  0.61114944  0.58442808     0.10700
C2584       C  0.13412281  0.58605848  0.57176916    -0.06400
C2585       C  0.11024360  0.58755636  0.55539776    -0.17700
C2586       C  0.09867844  0.61391717  0.54787757     0.10700
S2587       S  0.17292198  0.60963423  0.60991282    -0.32600
S2588       S  0.06806102  0.61369101  0.52578343    -0.32600
H2589       H  0.06164497  0.58498014  0.53036666     0.28700
H2590       H  0.17415699  0.63885336  0.61579255     0.28700
H2591       H  0.14312127  0.65682549  0.58394228     0.19300
H2592       H  0.10188966  0.56822997  0.54648067     0.19300
C2593       C  0.06914615  0.83933506  0.88833812    -0.06500
C2594       C  0.08632287  0.82599130  0.86740377    -0.17600
C2595       C  0.08124741  0.82820092  0.83657758     0.10700
C2596       C  0.05928155  0.84480055  0.82690109    -0.06400
C2597       C  0.04582002  0.86239978  0.84758681    -0.17700
C2598       C  0.05057816  0.85984208  0.87823722     0.10700
S2599       S  0.09963295  0.80636317  0.81052735    -0.32600
S2600       S  0.02951253  0.87972635  0.90343388    -0.32600
H2601       H  0.04780217  0.87821800  0.92752243     0.28700
H2602       H  0.11944650  0.79675936  0.83094173     0.28700
H2603       H  0.10096263  0.81043089  0.87528598     0.19300
H2604       H  0.02904394  0.87563406  0.84016621     0.19300
C2605       C  0.04688133  0.83606983  0.57201012    -0.06500
C2606       C  0.06292398  0.82200866  0.59383314    -0.17600
C2607       C  0.06163550  0.82900995  0.62411666     0.10700
C2608       C  0.04248322  0.84912425  0.63329346    -0.06400
C2609       C  0.02874905  0.86552982  0.61135191    -0.17700
C2610       C  0.03101365  0.85945411  0.58076232     0.10700
S2611       S  0.08221472  0.80986769  0.65098324    -0.32600
S2612       S  0.01136485  0.88047453  0.55469358    -0.32600
H2613       H  0.02595411  0.87300694  0.52899428     0.28700
H2614       H  0.10116735  0.79958451  0.63017011     0.28700
H2615       H  0.07559530  0.80432548  0.58768112     0.19300
H2616       H  0.01428992  0.88156857  0.61831955     0.19300
C2617       C  0.06662028  0.66480696  0.88460509    -0.06500
C2618       C  0.07867793  0.67891982  0.86011375    -0.17600
C2619       C  0.07705642  0.66822051  0.83113485     0.10700
C2620       C  0.06237492  0.64345550  0.82622029    -0.06400
C2621       C  0.05595763  0.62627070  0.85119488    -0.17700
C2622       C  0.05771940  0.63679875  0.88041666     0.10700
S2623       S  0.09007128  0.68921689  0.80077817    -0.32600
S2624       S  0.04517174  0.61514763  0.91047310    -0.32600
H2625       H  0.06827254  0.61896464  0.92833920     0.28700
H2626       H  0.09438041  0.66589858  0.78187089     0.28700
H2627       H  0.08775407  0.69952918  0.86315866     0.19300
H2628       H  0.04556860  0.60642839  0.84767448     0.19300
C2629       C  0.03288320  0.65739771  0.63435911    -0.06500
C2630       C  0.01926750  0.64278516  0.61136492    -0.17600
C2631       C  0.02257544  0.64989199  0.58086648     0.10700
C2632       C  0.03928499  0.67260301  0.57310158    -0.06400
C2633       C  0.05428791  0.68581991  0.59587918    -0.17700
C2634       C  0.05147196  0.67838890  0.62613451     0.10700
S2635       S  0.00358873  0.63186382  0.55245599    -0.32600
S2636       S  0.06932911  0.69900888  0.65335447    -0.32600
H2637       H  0.07478995  0.67592145  0.67256093     0.28700
H2638       H  0.99613833  0.60878167  0.57068004     0.28700
H2639       H  0.00477431  0.62673533  0.61752703     0.19300
H2640       H  0.06724544  0.70338390  0.59013959     0.19300
O2641       O  0.63060861  0.19211313  0.03770661    -0.75700
O2642       O  0.60212786  0.16538777  0.01002574    -0.54600
C2643       C  0.62087083  0.16774142  0.02956471     0.78100
O2644       O  0.54810623  0.30520217  0.04435824    -0.60300
O2645       O  0.57516692  0.33455038  0.01727514    -0.53300
C2646       C  0.56148074  0.32815392  0.04077053     0.70100
O2647       O  0.54439989  0.21673889  0.05183673    -0.74800
O2648       O  0.55328525  0.17734649  0.02462340    -0.55400
C2649       C  0.54837887  0.18996595  0.04951668     0.76100
O2650       O  0.64191931  0.29232718  0.03738770    -0.60000
O2651       O  0.62106315  0.32698563  0.00925801    -0.53100
C2652       C  0.63741709  0.31874819  0.02955084     0.72700
Zr2653     Zr  0.62455998  0.24364122  0.02335768     2.54700
O2654       O  0.62526650  0.24157734  0.07776880    -0.80500
O2655       O  0.67343766  0.23857586  0.01945793    -0.94000
Zr2656     Zr  0.54346363  0.25899991  0.02128655     2.64700
O2657       O  0.51907232  0.26738850  0.06794998    -0.98900
O2658       O  0.49676999  0.26408936  0.00468867    -0.81000
O2659       O  0.58062433  0.23003821  0.01755896    -0.84300
O2660       O  0.58810012  0.27633373  0.02294012    -2.19000
O2661       O  0.64542472  0.28855168  0.43125056    -0.67700
O2662       O  0.63484337  0.30782185  0.47424419    -0.52300
C2663       C  0.64332483  0.31078584  0.44784053     0.71000
O2664       O  0.55715130  0.21109577  0.40204734    -0.60600
O2665       O  0.55651521  0.17372132  0.43396221    -0.52600
C2666       C  0.55815410  0.18427411  0.40727087     0.72800
O2667       O  0.55676947  0.30152394  0.40763325    -0.72000
O2668       O  0.58042515  0.33071546  0.43847233    -0.50700
C2669       C  0.56974980  0.32445921  0.41311070     0.74200
O2670       O  0.63595121  0.18781853  0.43616734    -0.67400
O2671       O  0.60209087  0.16263900  0.45816081    -0.54600
C2672       C  0.62378066  0.16423661  0.44289494     0.72600
Zr2673     Zr  0.62931831  0.23987874  0.44645992     2.77500
O2674       O  0.63906749  0.23436422  0.39344753    -0.98100
O2675       O  0.67678464  0.23619464  0.46045986    -0.78900
Zr2676     Zr  0.54916317  0.25455008  0.42946794     2.70100
O2677       O  0.53646356  0.26037764  0.37708601    -0.80200
O2678       O  0.50002518  0.25400318  0.42794894    -0.99300
Zr2679     Zr  0.57213738  0.19564495  0.48066746     2.21500
Zr2680     Zr  0.59165992  0.30310272  0.97807796     2.11100
O2681       O  0.59306255  0.27261639  0.43794687    -2.47900
O2682       O  0.58532458  0.22212005  0.43827105    -0.80000
O2683       O  0.62486799  0.26762566  0.49064001    -0.72200
O2684       O  0.53692487  0.22953127  0.97884139    -2.33100
O2685       O  0.61680950  0.21328565  0.48978422    -2.29300
O2686       O  0.54636478  0.28723352  0.97753466    -0.73900
H2687       H  0.59161367  0.28662781  0.04093825     0.78100
H2688       H  0.52002662  0.21944834  0.97892904     0.79200
H2689       H  0.59907968  0.28279401  0.42055683     0.81400
H2690       H  0.62975889  0.19816769  0.49339830     0.79000
H2691       H  0.49313444  0.28478486  0.00491426     0.42000
H2692       H  0.49472640  0.27294965  0.42009349     0.41000
H2693       H  0.55370683  0.25918480  0.36594651     0.40700
H2694       H  0.62149442  0.22920751  0.38446959     0.38600
H2695       H  0.68537665  0.22602559  0.44363365     0.41700
H2696       H  0.67898618  0.25428927  0.00608964     0.36500
H2697       H  0.61165666  0.25586035  0.08405714     0.42600
H2698       H  0.50347765  0.27970703  0.06241972     0.39100
H2699       H  0.64245396  0.25377843  0.38584900     0.44000
H2700       H  0.67627295  0.22124074  0.00746836     0.42700
H2701       H  0.51083700  0.24919636  0.07392493     0.42800
H2702       H  0.49561224  0.24076056  0.41162114     0.43200
O2703       O  0.91533972  0.20975462  0.07769763    -0.75700
O2704       O  0.90060692  0.17028252  0.05410530    -0.54600
C2705       C  0.90892123  0.18362936  0.07772183     0.78100
O2706       O  0.83969701  0.29801455  0.06981674    -0.60300
O2707       O  0.85668513  0.32612869  0.03277834    -0.53300
C2708       C  0.84589818  0.32259184  0.05839216     0.70100
O2709       O  0.83614692  0.19731234  0.07520610    -0.74800
O2710       O  0.84560344  0.15871321  0.53517033    -0.55400
C2711       C  0.84103793  0.17119106  0.06712430     0.76100
O2712       O  0.93899305  0.29206061  0.04780590    -0.60000
O2713       O  0.90621251  0.32337344  0.03819180    -0.53100
C2714       C  0.92320975  0.31188610  0.05667258     0.72700
Zr2715     Zr  0.92557741  0.24321269  0.03948028     2.54700
O2716       O  0.95782908  0.25080434  0.08010801    -0.80500
O2717       O  0.96674003  0.21691965  0.02689668    -0.94000
Zr2718     Zr  0.84248063  0.24690060  0.05397483     2.64700
O2719       O  0.84232629  0.24966511  0.10831825    -0.98900
O2720       O  0.79336118  0.24985410  0.05252900    -0.81000
O2721       O  0.88321680  0.22145139  0.04796016    -0.84300
O2722       O  0.88425437  0.26922345  0.04428922    -2.19000
O2723       O  0.92430367  0.27704407  0.43330353    -0.67700
O2724       O  0.90343247  0.31371056  0.45714899    -0.52300
C2725       C  0.91607447  0.30282315  0.43466159     0.71000
O2726       O  0.83129855  0.18616050  0.44105469    -0.60600
O2727       O  0.83963082  0.15952695  0.48193423    -0.52600
C2728       C  0.83384815  0.16157420  0.45450913     0.72800
O2729       O  0.82728400  0.28867335  0.44056779    -0.72000
O2730       O  0.85356347  0.31891512  0.46739479    -0.50700
C2731       C  0.83609121  0.31388410  0.44729376     0.74200
O2732       O  0.90476302  0.19210842  0.43156159    -0.67400
O2733       O  0.89408394  0.15697550  0.46406819    -0.54600
C2734       C  0.89862730  0.16648433  0.43741816     0.72600
Zr2735     Zr  0.91688549  0.23294093  0.45951152     2.77500
O2736       O  0.94087630  0.23138766  0.41189668    -0.98100
O2737       O  0.96311320  0.21880516  0.47152568    -0.78900
Zr2738     Zr  0.83531577  0.23766117  0.45726280     2.70100
O2739       O  0.82455691  0.23956378  0.40416160    -0.80200
O2740       O  0.78707525  0.23643584  0.46795045    -0.99300
Zr2741     Zr  0.87450229  0.18471958  0.50543058     2.21500
Zr2742     Zr  0.88004990  0.29054000  0.49930090     2.11100
O2743       O  0.87718561  0.26152690  0.45594864    -2.47900
O2744       O  0.87516159  0.21415763  0.46555995    -0.80000
O2745       O  0.92114853  0.26390756  0.50085190    -0.72200
O2746       O  0.83309846  0.21201987  0.50269289    -2.33100
O2747       O  0.91805319  0.20492501  0.50408209    -2.29300
O2748       O  0.83664598  0.26763587  0.49962525    -0.73900
H2749       H  0.88510021  0.28104282  0.06143152     0.78100
H2750       H  0.81694504  0.20071309  0.50268904     0.79200
H2751       H  0.87626424  0.27183005  0.43731246     0.81400
H2752       H  0.93147260  0.18990357  0.50429315     0.79000
H2753       H  0.78736652  0.23254060  0.06317196     0.42000
H2754       H  0.78302962  0.25504988  0.47711807     0.41000
H2755       H  0.80714815  0.22955387  0.40234114     0.40700
H2756       H  0.92663906  0.23059561  0.39633193     0.38600
H2757       H  0.96513136  0.19938101  0.46349912     0.41700
H2758       H  0.96443456  0.19807521  0.03644446     0.36500
H2759       H  0.96052619  0.23214806  0.09005089     0.42600
H2760       H  0.82531443  0.24047113  0.11451680     0.39100
H2761       H  0.94996717  0.21259222  0.41120768     0.44000
H2762       H  0.98136835  0.22552050  0.03861807     0.42700
H2763       H  0.85680645  0.23637673  0.11493815     0.42800
H2764       H  0.77820152  0.23744042  0.44810962     0.43200
O2765       O  0.67552271  0.04867654  0.14832944    -0.75700
O2766       O  0.65287632  0.02003808  0.11596006    -0.54600
C2767       C  0.65343849  0.03941080  0.13556162     0.78100
O2768       O  0.78511924  0.06154609  0.06579425    -0.60300
O2769       O  0.81278705  0.03832365  0.09891347    -0.53300
C2770       C  0.80591251  0.06028200  0.08293992     0.70100
O2771       O  0.70229625  0.06392379  0.05631361    -0.74800
O2772       O  0.66602407  0.03649412  0.06593343    -0.55400
C2773       C  0.67684993  0.06082222  0.05944305     0.76100
O2774       O  0.77330100  0.05539260  0.16364242    -0.60000
O2775       O  0.79619427  0.01473945  0.16301235    -0.53100
C2776       C  0.79603807  0.04124357  0.16584600     0.72700
Zr2777     Zr  0.72627145  0.03778274  0.14870250     2.54700
O2778       O  0.71941086  0.08873082  0.15404823    -0.80500
O2779       O  0.72127813  0.03151481  0.20247413    -0.94000
Zr2780     Zr  0.74332236  0.03623157  0.05909776     2.64700
O2781       O  0.74041959  0.08052008  0.03057568    -0.98900
O2782       O  0.75310101  0.02386731  0.00753205    -0.81000
O2783       O  0.71106594  0.03555679  0.09827098    -0.84300
O2784       O  0.75831032  0.03783016  0.10949896    -2.19000
O2785       O  0.77438728  0.43836797  0.17016482    -0.67700
O2786       O  0.80836434  0.46219418  0.14694274    -0.52300
C2787       C  0.79981131  0.44484072  0.16651482     0.71000
O2788       O  0.71147136  0.42537615  0.04963316    -0.60600
O2789       O  0.67286967  0.44984010  0.05851897    -0.52600
C2790       C  0.68587005  0.42688238  0.05140313     0.72800
O2791       O  0.79255562  0.43112264  0.06486764    -0.72000
O2792       O  0.81917638  0.45674146  0.09588320    -0.50700
C2793       C  0.81364175  0.43414154  0.08104530     0.74200
O2794       O  0.67978582  0.44156586  0.15047167    -0.67400
O2795       O  0.65590313  0.46561827  0.11434528    -0.54600
C2796       C  0.65731528  0.44953903  0.13751012     0.72600
Zr2797     Zr  0.72959463  0.45053142  0.14454211     2.77500
O2798       O  0.72842274  0.39916745  0.13922843    -0.98100
O2799       O  0.72060305  0.44781296  0.19796796    -0.78900
Zr2800     Zr  0.74962715  0.45424273  0.05665904     2.70100
O2801       O  0.75780851  0.40982930  0.03045201    -0.80200
O2802       O  0.75804830  0.46825303  0.00526234    -0.99300
Zr2803     Zr  0.68861238  0.49188002  0.08617602     2.21500
Zr2804     Zr  0.78641815  0.99638731  0.11528923     2.11100
O2805       O  0.76316374  0.45162393  0.10733817    -2.47900
O2806       O  0.71901103  0.45672042  0.09490891    -0.80000
O2807       O  0.75340387  0.99609668  0.15487104    -0.72200
O2808       O  0.71714304  0.99485870  0.05084034    -2.33100
O2809       O  0.70279825  0.49219697  0.13781330    -2.29300
O2810       O  0.77294243  0.99635119  0.06425647    -0.73900
H2811       H  0.76644992  0.05586745  0.11293178     0.78100
H2812       H  0.70827312  0.99449458  0.03161257     0.79200
H2813       H  0.77313715  0.43459087  0.11215416     0.81400
H2814       H  0.68786034  0.49247624  0.15161684     0.79000
H2815       H  0.77283610  0.02651225  0.00549927     0.42000
H2816       H  0.77712676  0.46275659  0.00169120     0.41000
H2817       H  0.75761437  0.39477760  0.04602700     0.40700
H2818       H  0.72510949  0.39612889  0.11766092     0.38600
H2819       H  0.73108443  0.46351539  0.20667099     0.41700
H2820       H  0.71888557  0.05099892  0.21020995     0.36500
H2821       H  0.73484540  0.09519397  0.16624761     0.42600
H2822       H  0.75323612  0.07844050  0.01382437     0.39100
H2823       H  0.74735798  0.39282574  0.14242667     0.44000
H2824       H  0.73946998  0.02555940  0.20953087     0.42700
H2825       H  0.74848298  0.09515389  0.04349591     0.42800
H2826       H  0.74747026  0.45462422  0.99350696     0.43200
O2827       O  0.69355411  0.05992923  0.42062701    -0.75700
O2828       O  0.65983643  0.03036799  0.40693662    -0.54600
C2829       C  0.66872087  0.05455964  0.41589415     0.78100
O2830       O  0.78196349  0.03248501  0.31173416    -0.60300
O2831       O  0.81091151  0.00911840  0.34344099    -0.53300
C2832       C  0.80617797  0.02482768  0.32076531     0.70100
O2833       O  0.68465911  0.03284997  0.31401402    -0.74800
O2834       O  0.65721153  0.01193454  0.34834896    -0.55400
C2835       C  0.66090699  0.02606726  0.32434760     0.76100
O2836       O  0.77817661  0.05998975  0.41693059    -0.60000
O2837       O  0.81140858  0.02969150  0.40165816    -0.53100
C2838       C  0.80268570  0.05440807  0.41035327     0.72700
Zr2839     Zr  0.73626942  0.03564976  0.41897086     2.54700
O2840       O  0.73388954  0.08644204  0.42859078    -0.80500
O2841       O  0.74267077  0.03543182  0.47291161    -0.94000
Zr2842     Zr  0.73348965  0.02396432  0.32890717     2.64700
O2843       O  0.73231522  0.07500728  0.32005107    -0.98900
O2844       O  0.73245942  0.01364606  0.27568688    -0.81000
O2845       O  0.70974330  0.03102984  0.37494724    -0.84300
O2846       O  0.75946608  0.02970143  0.37288459    -2.19000
O2847       O  0.78007737  0.43315065  0.44418287    -0.67700
O2848       O  0.81065202  0.44735833  0.40978410    -0.52300
C2849       C  0.80147780  0.42902846  0.42873675     0.71000
O2850       O  0.68415004  0.42853154  0.33389315    -0.60600
O2851       O  0.65571426  0.45827530  0.35926560    -0.52600
C2852       C  0.66013482  0.43803296  0.34117227     0.72800
O2853       O  0.78164729  0.42541285  0.33108488    -0.72000
O2854       O  0.81232504  0.45358616  0.35473939    -0.50700
C2855       C  0.80625947  0.43358307  0.33708177     0.74200
O2856       O  0.69750407  0.42554356  0.43345046    -0.67400
O2857       O  0.66306123  0.44911747  0.41017435    -0.54600
C2858       C  0.67333255  0.42701322  0.42357730     0.72600
Zr2859     Zr  0.73657691  0.45526523  0.43415000     2.77500
O2860       O  0.74359932  0.41536160  0.46876386    -0.98100
O2861       O  0.73029213  0.47697792  0.48264184    -0.78900
Zr2862     Zr  0.73342256  0.43853913  0.34561478     2.70100
O2863       O  0.73063253  0.38839015  0.35873896    -0.80200
O2864       O  0.73343238  0.42751366  0.29251617    -0.99300
Zr2865     Zr  0.68490989  0.48951458  0.38379568     2.21500
Zr2866     Zr  0.78671824  0.48596006  0.38257859     2.11100
O2867       O  0.75952802  0.44496396  0.38909266    -2.47900
O2868       O  0.71453311  0.45322544  0.38946515    -0.80000
O2869       O  0.76484463  0.49531688  0.42825349    -0.72200
O2870       O  0.70832508  0.48074082  0.33737183    -2.33100
O2871       O  0.70940598  0.49720433  0.42874378    -2.29300
O2872       O  0.76123418  0.47845238  0.33736108    -0.73900
H2873       H  0.77046694  0.04571122  0.36778908     0.78100
H2874       H  0.69628758  0.47771166  0.32073914     0.79200
H2875       H  0.76900268  0.42707066  0.38971338     0.81400
H2876       H  0.69756757  0.50092958  0.44540986     0.79000
H2877       H  0.74752728  0.99999308  0.27266183     0.42000
H2878       H  0.71689760  0.43680814  0.28444686     0.41000
H2879       H  0.74242287  0.38588567  0.37649027     0.40700
H2880       H  0.73087999  0.40015581  0.46342434     0.38600
H2881       H  0.74865508  0.47685549  0.49147357     0.41700
H2882       H  0.74724034  0.05531089  0.47754229     0.36500
H2883       H  0.73551116  0.09557543  0.40866002     0.42600
H2884       H  0.75133192  0.08018476  0.31621927     0.39100
H2885       H  0.73769676  0.42198025  0.48861666     0.44000
H2886       H  0.75981148  0.02490427  0.47641494     0.42700
H2887       H  0.72326678  0.07726610  0.30039579     0.42800
H2888       H  0.72958576  0.40695614  0.29176963     0.43200
O2889       O  0.52191041  0.07428957  0.16044386    -0.75700
O2890       O  0.55595592  0.08630213  0.19253313    -0.54600
C2891       C  0.54743672  0.07655415  0.16788128     0.78100
O2892       O  0.94049707  0.18801094  0.21497330    -0.60300
O2893       O  0.90881520  0.15573307  0.22015241    -0.53300
C2894       C  0.92030774  0.17502123  0.20433823     0.70100
O2895       O  0.51615216  0.16104201  0.17136273    -0.74800
O2896       O  0.55311652  0.13749863  0.18944446    -0.55400
C2897       C  0.54026037  0.15129263  0.16859457     0.76100
O2898       O  0.92545361  0.08114434  0.17940168    -0.60000
O2899       O  0.90158691  0.10178803  0.21714933    -0.53100
C2900       C  0.90276096  0.08825121  0.19269388     0.72700
Zr2901     Zr  0.97649591  0.08639411  0.18656858     2.54700
O2902       O  0.96983490  0.10258284  0.13528669    -0.80500
O2903       O  0.97256059  0.03667383  0.17301205    -0.94000
Zr2904     Zr  0.98603088  0.16880102  0.21560378     2.64700
O2905       O  0.98532544  0.21003957  0.18163582    -0.98900
O2906       O  0.00901216  0.20906177  0.23766317    -0.81000
O2907       O  0.50272701  0.12299044  0.19505576    -0.84300
O2908       O  0.95742471  0.12913079  0.20474768    -2.19000
O2909       O  0.93513053  0.04609541  0.27938801    -0.67700
O2910       O  0.90645429  0.08265722  0.26666037    -0.52300
C2911       C  0.91113951  0.05765067  0.27647186     0.71000
O2912       O  0.53370310  0.11188167  0.30310896    -0.60600
O2913       O  0.56391108  0.12804408  0.27165514    -0.52600
C2914       C  0.55605585  0.12408894  0.29873558     0.72800
O2915       O  0.95354536  0.13784982  0.32835121    -0.72000
O2916       O  0.91610589  0.13179074  0.29956098    -0.50700
C2917       C  0.92819097  0.13418292  0.32505964     0.74200
O2918       O  0.53256632  0.04600971  0.27957918    -0.67400
O2919       O  0.56101389  0.07058677  0.24907802    -0.54600
C2920       C  0.55657500  0.05233594  0.26964715     0.72600
Zr2921     Zr  0.98390319  0.05870996  0.26912236     2.77500
O2922       O  0.98248346  0.03702001  0.31861373    -0.98100
O2923       O  0.98363280  0.01246349  0.24544738    -0.78900
Zr2924     Zr  0.99317080  0.13884196  0.29796198     2.70100
O2925       O  0.00192141  0.14365659  0.35133487    -0.80200
O2926       O  0.00740432  0.18754777  0.30676069    -0.99300
Zr2927     Zr  0.53454318  0.10943974  0.23166596     2.21500
Zr2928     Zr  0.93425879  0.11992077  0.24998896     2.11100
O2929       O  0.96345780  0.10072501  0.28742541    -2.47900
O2930       O  0.51279010  0.09585960  0.27667804    -0.80000
O2931       O  0.95404210  0.07650037  0.23199435    -0.72200
O2932       O  0.51582394  0.15273136  0.24957524    -2.33100
O2933       O  0.50625874  0.06904465  0.22208715    -2.29300
O2934       O  0.96286895  0.15867505  0.26149387    -0.73900
H2935       H  0.94428281  0.13215459  0.18939942     0.78100
H2936       H  0.52998777  0.16621353  0.25319249     0.79200
H2937       H  0.95392872  0.09362819  0.30462584     0.81400
H2938       H  0.51687486  0.05289554  0.21568265     0.79000
H2939       H  0.02544708  0.21158226  0.22537802     0.42000
H2940       H  0.99456885  0.19939298  0.29497746     0.41000
H2941       H  0.00522017  0.12404686  0.35865923     0.40700
H2942       H  0.99113831  0.01816037  0.31610242     0.38600
H2943       H  0.96457830  0.00637883  0.24668744     0.41700
H2944       H  0.46534798  0.03380324  0.15004792     0.36500
H2945       H  0.44990540  0.10395087  0.13070392     0.42600
H2946       H  0.98969574  0.20347747  0.16124850     0.39100
H2947       H  0.99553855  0.04796893  0.33057934     0.44000
H2948       H  0.96220620  0.03697589  0.15404287     0.42700
H2949       H  0.96654237  0.21731389  0.18023526     0.42800
H2950       H  0.00281861  0.19180081  0.32777926     0.43200
O2951       O  0.52089314  0.33340887  0.15860150    -0.75700
O2952       O  0.55756114  0.34842158  0.18455043    -0.54600
C2953       C  0.54531910  0.34177909  0.16004732     0.78100
O2954       O  0.92785429  0.41552231  0.19561479    -0.60300
O2955       O  0.90240680  0.38550632  0.22398843    -0.53300
C2956       C  0.90479743  0.40581042  0.20520727     0.70100
O2957       O  0.52605891  0.42340733  0.17237788    -0.74800
O2958       O  0.55915589  0.40021123  0.19899803    -0.55400
C2959       C  0.55137731  0.41769353  0.17884654     0.76100
O2960       O  0.93782707  0.30126657  0.19482905    -0.60000
O2961       O  0.90827129  0.33547821  0.20409952    -0.53100
C2962       C  0.91837296  0.31709190  0.18613533     0.72700
Zr2963     Zr  0.98358088  0.31800521  0.19763707     2.54700
O2964       O  0.97452370  0.30088056  0.14740628    -0.80500
O2965       O  0.00402548  0.27089702  0.20051655    -0.94000
Zr2966     Zr  0.97782151  0.40574822  0.20382569     2.64700
O2967       O  0.97525953  0.41229103  0.14983345    -0.98900
O2968       O  0.97402084  0.45632349  0.21297779    -0.81000
O2969       O  0.50567369  0.36763295  0.19019133    -0.84300
O2970       O  0.95694592  0.36045723  0.20183759    -2.19000
O2971       O  0.94585543  0.29695449  0.30163231    -0.67700
O2972       O  0.91308469  0.32865452  0.29045362    -0.52300
C2973       C  0.92567378  0.31240531  0.30928090     0.71000
O2974       O  0.53558129  0.41889938  0.29211235    -0.60600
O2975       O  0.56354293  0.39942547  0.25727584    -0.52600
C2976       C  0.55939642  0.41425632  0.28048152     0.72800
O2977       O  0.93641699  0.40665086  0.30824988    -0.72000
O2978       O  0.90681627  0.37909992  0.28219164    -0.50700
C2979       C  0.91220285  0.39750058  0.30190844     0.74200
O2980       O  0.53500441  0.33123648  0.30192627    -0.67400
O2981       O  0.56627208  0.34924285  0.27021232    -0.54600
C2982       C  0.55834026  0.34131661  0.29640005     0.72600
Zr2983     Zr  0.98996359  0.31140472  0.28341424     2.77500
O2984       O  0.99308076  0.28440200  0.33024737    -0.98100
O2985       O  0.00520574  0.26431530  0.26855452    -0.78900
Zr2986     Zr  0.98501312  0.39853120  0.29173064     2.70100
O2987       O  0.98826766  0.39573997  0.34599722    -0.80200
O2988       O  0.98279187  0.45011327  0.29380832    -0.99300
Zr2989     Zr  0.53659468  0.36778486  0.23016773     2.21500
Zr2990     Zr  0.93324406  0.35397979  0.24774070     2.11100
O2991       O  0.96354057  0.35376147  0.28948959    -2.47900
O2992       O  0.51316053  0.36650147  0.27592846    -0.80000
O2993       O  0.95900948  0.31129613  0.24270591    -0.72200
O2994       O  0.50968768  0.41041612  0.23335769    -2.33100
O2995       O  0.51723121  0.32174899  0.23207479    -2.29300
O2996       O  0.95496933  0.39944275  0.24997929    -0.73900
H2997       H  0.94534806  0.36221919  0.18465815     0.78100
H2998       H  0.52070793  0.42719623  0.23243897     0.79200
H2999       H  0.95439088  0.35352639  0.30838157     0.81400
H3000       H  0.53084524  0.30699886  0.23056374     0.79000
H3001       H  0.47042470  0.46841447  0.17998698     0.42000
H3002       H  0.00066906  0.45647892  0.28667300     0.41000
H3003       H  0.97363017  0.38278728  0.35211273     0.40700
H3004       H  0.98294036  0.26673108  0.32676510     0.38600
H3005       H  0.02294344  0.26164219  0.27853646     0.41700
H3006       H  0.00578986  0.26473219  0.17951117     0.36500
H3007       H  0.47143292  0.32885762  0.13071302     0.42600
H3008       H  0.97418325  0.39278707  0.14189735     0.39100
H3009       H  0.01211544  0.27791724  0.33191455     0.44000
H3010       H  0.98945330  0.25905208  0.20889910     0.42700
H3011       H  0.95711587  0.42061117  0.14602238     0.42800
H3012       H  0.97009216  0.45564378  0.27759961     0.43200
C3013       C  0.83085194  0.42099750  0.32328109    -0.06500
C3014       C  0.84820958  0.44023263  0.30877022    -0.17600
C3015       C  0.87589713  0.43451687  0.30515923     0.10700
C3016       C  0.88722760  0.40888790  0.31592375    -0.06400
C3017       C  0.86982051  0.38935641  0.33000197    -0.17700
C3018       C  0.84197713  0.39503372  0.33357474     0.10700
S3019       S  0.89568836  0.45989208  0.28482915    -0.32600
S3020       S  0.82155631  0.36856684  0.35154707    -0.32600
H3021       H  0.79828102  0.37440670  0.33442574     0.28700
H3022       H  0.91873810  0.45658198  0.30296210     0.28700
H3023       H  0.84030760  0.46067947  0.30145227     0.19300
H3024       H  0.87778912  0.36886896  0.33690140     0.19300
C3025       C  0.63509158  0.42785040  0.32636709    -0.06500
C3026       C  0.63430206  0.42767177  0.29513890    -0.17600
C3027       C  0.60967406  0.42597275  0.27952195     0.10700
C3028       C  0.58483606  0.42358581  0.29545241    -0.06400
C3029       C  0.58561970  0.42477371  0.32661697    -0.17700
C3030       C  0.61021261  0.42643889  0.34217796     0.10700
S3031       S  0.61042282  0.42913308  0.23920518    -0.32600
S3032       S  0.60926089  0.42580595  0.38248478    -0.32600
H3033       H  0.58128576  0.43036560  0.38567032     0.28700
H3034       H  0.63864751  0.42821204  0.23565968     0.28700
H3035       H  0.65294037  0.43069303  0.28295356     0.19300
H3036       H  0.56692048  0.42324557  0.33893897     0.19300
C3037       C  0.88621053  0.04331523  0.28672841    -0.06500
C3038       C  0.86481077  0.03908292  0.26622746    -0.17600
C3039       C  0.83819758  0.03339911  0.27593405     0.10700
C3040       C  0.83207843  0.03443188  0.30673904    -0.06400
C3041       C  0.85361712  0.03947168  0.32685927    -0.17700
C3042       C  0.88034197  0.04277023  0.31735563     0.10700
S3043       S  0.81344352  0.02401560  0.24831121    -0.32600
S3044       S  0.90689013  0.04722369  0.34457171    -0.32600
H3045       H  0.89034215  0.04827025  0.37006236     0.28700
H3046       H  0.80159592  0.00261839  0.26584196     0.28700
H3047       H  0.86889051  0.04029639  0.24246181     0.19300
H3048       H  0.84956648  0.03996497  0.35062693     0.19300
C3049       C  0.58195091  0.04048089  0.28335791    -0.06500
C3050       C  0.60535611  0.03847191  0.26525067    -0.17600
C3051       C  0.63140420  0.03439560  0.27744562     0.10700
C3052       C  0.63484655  0.03349521  0.30876233    -0.06400
C3053       C  0.61135217  0.03545069  0.32670912    -0.17700
C3054       C  0.58534337  0.03798845  0.31452174     0.10700
S3055       S  0.66132908  0.58310676  0.28439750    -0.32600
S3056       S  0.55744073  0.03882236  0.34013565    -0.32600
H3057       H  0.54454247  0.01605997  0.32601552     0.28700
H3058       H  0.67062774  0.57955898  0.31390693     0.28700
H3059       H  0.60336447  0.04038434  0.24118107     0.19300
H3060       H  0.61309783  0.03440108  0.35085026     0.19300
C3061       C  0.82267216  0.43298182  0.18474445    -0.06500
C3062       C  0.84219159  0.45278384  0.19426299    -0.17600
C3063       C  0.86961128  0.44538090  0.19818822     0.10700
C3064       C  0.87807549  0.41700128  0.19442346    -0.06400
C3065       C  0.85822749  0.39684998  0.18689069    -0.17700
C3066       C  0.83093920  0.40443578  0.18227241     0.10700
S3067       S  0.89276386  0.47310825  0.20768134    -0.32600
S3068       S  0.80769252  0.37685940  0.17278517    -0.32600
H3069       H  0.78579048  0.38895898  0.18823495     0.28700
H3070       H  0.91187485  0.46534423  0.18596732     0.28700
H3071       H  0.83640019  0.47494342  0.19611472     0.19300
H3072       H  0.86401113  0.37468805  0.18503536     0.19300
C3073       C  0.63057920  0.44090373  0.14968484    -0.06500
C3074       C  0.61402296  0.46131542  0.16389767    -0.17600
C3075       C  0.58668125  0.45587991  0.17097269     0.10700
C3076       C  0.57484012  0.42996704  0.16242927    -0.06400
C3077       C  0.59154766  0.41018780  0.14765356    -0.17700
C3078       C  0.61899221  0.41487808  0.14202306     0.10700
S3079       S  0.56887065  0.48139437  0.19363883    -0.32600
S3080       S  0.63837128  0.38622832  0.12601364    -0.32600
H3081       H  0.66270391  0.39236387  0.14067434     0.28700
H3082       H  0.54282685  0.47401689  0.18407528     0.28700
H3083       H  0.62260564  0.48152825  0.16996188     0.19300
H3084       H  0.58389006  0.38955882  0.14300101     0.19300
C3085       C  0.87545007  0.07928069  0.18121693    -0.06500
C3086       C  0.87344146  0.05380342  0.16597224    -0.17600
C3087       C  0.84827642  0.04119908  0.16038017     0.10700
C3088       C  0.82347465  0.05466189  0.16981111    -0.06400
C3089       C  0.82547415  0.08092853  0.18368813    -0.17700
C3090       C  0.85070483  0.09315691  0.18956199     0.10700
S3091       S  0.84951534  0.00813858  0.14030079    -0.32600
S3092       S  0.84938571  0.12694449  0.20757197    -0.32600
H3093       H  0.87048565  0.13659126  0.18962287     0.28700
H3094       H  0.87714253  0.00179310  0.14415855     0.28700
H3095       H  0.89191191  0.04308409  0.15940236     0.19300
H3096       H  0.80720197  0.09184599  0.19067962     0.19300
C3097       C  0.62567412  0.05041752  0.14247404    -0.06500
C3098       C  0.60402046  0.03093585  0.14132131    -0.17600
C3099       C  0.57687795  0.03951477  0.14400062     0.10700
C3100       C  0.57056807  0.06824941  0.14856335    -0.06400
C3101       C  0.59197455  0.08798230  0.14707508    -0.17700
C3102       C  0.61925667  0.07944057  0.14455104     0.10700
S3103       S  0.55119840  0.01276663  0.14307714    -0.32600
S3104       S  0.64549617  0.10573067  0.14394218    -0.32600
H3105       H  0.62902105  0.12903467  0.15166693     0.28700
H3106       H  0.53146490  0.03049664  0.12982109     0.28700
H3107       H  0.60825042  0.00858688  0.13814460     0.19300
H3108       H  0.58744890  0.11015318  0.15074742     0.19300
C3109       C  0.84178141  0.34986328  0.07456245    -0.06500
C3110       C  0.85942378  0.37241170  0.06720540    -0.17600
C3111       C  0.85299182  0.40076921  0.07324963     0.10700
C3112       C  0.82817570  0.40710841  0.08654533    -0.06400
C3113       C  0.81223266  0.38455765  0.09739469    -0.17700
C3114       C  0.81887606  0.35610749  0.09189175     0.10700
S3115       S  0.87532266  0.42803218  0.06011856    -0.32600
S3116       S  0.79542255  0.32941428  0.10371936    -0.32600
H3117       H  0.81565673  0.31215030  0.11680253     0.28700
H3118       H  0.86890542  0.44721369  0.08300655     0.28700
H3119       H  0.87746451  0.36822419  0.05433186     0.19300
H3120       H  0.79297975  0.38919830  0.10781942     0.19300
C3121       C  0.81808697  0.08842070  0.08845215    -0.06500
C3122       C  0.79984298  0.11096799  0.09455837    -0.17600
C3123       C  0.80777866  0.13940745  0.09344447     0.10700
C3124       C  0.83447384  0.14576566  0.08567136    -0.06400
C3125       C  0.85359955  0.12308721  0.08505228    -0.17700
C3126       C  0.84564307  0.09456429  0.08562426     0.10700
S3127       S  0.78246721  0.16653225  0.09871433    -0.32600
S3128       S  0.87101023  0.06759011  0.07930735    -0.32600
H3129       H  0.85450079  0.04971403  0.06234129     0.28700
H3130       H  0.80021232  0.18526193  0.11295710     0.28700
H3131       H  0.77869601  0.10647760  0.09843881     0.19300
H3132       H  0.87450764  0.12753902  0.07995801     0.19300
C3133       C  0.82627999  0.34045854  0.43254858    -0.06500
C3134       C  0.84567327  0.36167691  0.42650438    -0.17600
C3135       C  0.83857712  0.39064481  0.42409855     0.10700
C3136       C  0.81156565  0.39894997  0.42881992    -0.06400
C3137       C  0.79194421  0.37737591  0.43157032    -0.17700
C3138       C  0.79895335  0.34846365  0.43346378     0.10700
S3139       S  0.86432955  0.41654842  0.41670300    -0.32600
S3140       S  0.77308545  0.32225075  0.43911864    -0.32600
H3141       H  0.75157030  0.34142864  0.44385081     0.28700
H3142       H  0.88445062  0.39702266  0.40792310     0.28700
H3143       H  0.86684450  0.35574598  0.42592400     0.19300
H3144       H  0.77078479  0.38317349  0.43237335     0.19300
C3145       C  0.82018119  0.07960756  0.41304784    -0.06500
C3146       C  0.83641535  0.08129487  0.43833264    -0.17600
C3147       C  0.84235940  0.10756047  0.45130917     0.10700
C3148       C  0.83127689  0.13347188  0.43883790    -0.06400
C3149       C  0.81750751  0.13171880  0.41153869    -0.17700
C3150       C  0.81227946  0.10528505  0.39845418     0.10700
S3151       S  0.86295973  0.10610701  0.48486561    -0.32600
S3152       S  0.79311913  0.10525317  0.36420771    -0.32600
H3153       H  0.80436530  0.07953482  0.35414626     0.28700
H3154       H  0.87366894  0.07862814  0.48088143     0.28700
H3155       H  0.84211435  0.06179010  0.44978441     0.19300
H3156       H  0.80974331  0.15086963  0.40091706     0.19300
C3157       C  0.91700130  0.31767842  0.40546444    -0.06500
C3158       C  0.89371931  0.31517756  0.38735719    -0.17600
C3159       C  0.89538079  0.31358539  0.35596773     0.10700
C3160       C  0.92084210  0.31539674  0.34204522    -0.06400
C3161       C  0.94359155  0.32085113  0.36010951    -0.17700
C3162       C  0.94197797  0.32186316  0.39131022     0.10700
S3163       S  0.86483391  0.30627023  0.33554505    -0.32600
S3164       S  0.97289669  0.32611202  0.41212203    -0.32600
H3165       H  0.96046328  0.33364562  0.43920420     0.28700
H3166       H  0.87721813  0.29096604  0.31240016     0.28700
H3167       H  0.87447301  0.31084291  0.39779773     0.19300
H3168       H  0.96316643  0.32369690  0.34989812     0.19300
C3169       C  0.91950144  0.31541582  0.08996017    -0.06500
C3170       C  0.91555291  0.29055007  0.10705115    -0.17600
C3171       C  0.91171689  0.29089706  0.13798291     0.10700
C3172       C  0.91165189  0.31681509  0.15347575    -0.06400
C3173       C  0.91361882  0.34211651  0.13641515    -0.17700
C3174       C  0.91842796  0.34165355  0.10518208     0.10700
S3175       S  0.90828250  0.25706905  0.15668128    -0.32600
S3176       S  0.92655705  0.37479312  0.08718034    -0.32600
H3177       H  0.94196506  0.36306761  0.06391946     0.28700
H3178       H  0.89336754  0.26758564  0.18099425     0.28700
H3179       H  0.91525165  0.27015913  0.09627805     0.19300
H3180       H  0.91392887  0.36232752  0.14771164     0.19300
C3181       C  0.89698098  0.14847720  0.41068536    -0.06500
C3182       C  0.91590131  0.12652315  0.40749040    -0.17600
C3183       C  0.92468083  0.11869857  0.37886335     0.10700
C3184       C  0.91310662  0.13220906  0.35324538    -0.06400
C3185       C  0.89074471  0.14979113  0.35652078    -0.17700
C3186       C  0.88324995  0.15900318  0.38482229     0.10700
S3187       S  0.95253452  0.09373937  0.37538894    -0.32600
S3188       S  0.86037586  0.18880438  0.38607411    -0.32600
H3189       H  0.84693610  0.18309485  0.35905663     0.28700
H3190       H  0.95837644  0.09091635  0.40605299     0.28700
H3191       H  0.92628912  0.11836107  0.42713002     0.19300
H3192       H  0.88204945  0.15996520  0.33687906     0.19300
C3193       C  0.90978471  0.17125691  0.10802247    -0.06500
C3194       C  0.88753630  0.17728902  0.12668206    -0.17600
C3195       C  0.89037145  0.18016990  0.15785767     0.10700
C3196       C  0.91585185  0.17585586  0.17117744    -0.06400
C3197       C  0.93811934  0.17051431  0.15236221    -0.18300
C3198       C  0.93532436  0.16788234  0.12137265     0.10700
S3199       S  0.86264879  0.19420960  0.17952872    -0.32600
S3200       S  0.96496386  0.16349403  0.09832142    -0.32600
H3201       H  0.98420264  0.16563350  0.12131472     0.28700
H3202       H  0.84272299  0.19136403  0.15728336     0.28700
H3203       H  0.86855904  0.18329714  0.11661482     0.19300
H3204       H  0.95797843  0.16795266  0.16201123     0.19300
C3205       C  0.64827953  0.34098169  0.43770645    -0.06500
C3206       C  0.63804247  0.36311684  0.45597338    -0.17600
C3207       C  0.64298143  0.39188414  0.45011904     0.10700
C3208       C  0.65874878  0.39957876  0.42533085    -0.06400
C3209       C  0.66751386  0.37793179  0.40588298    -0.17700
C3210       C  0.66234363  0.34890934  0.41156212     0.10700
S3211       S  0.62958806  0.41755098  0.47594969    -0.32600
S3212       S  0.67519809  0.32250379  0.38617945    -0.32600
H3213       H  0.68792173  0.34132553  0.36627982     0.28700
H3214       H  0.62933171  0.44048359  0.45569297     0.28700
H3215       H  0.62620521  0.35816038  0.47556791     0.19300
H3216       H  0.67990163  0.38380374  0.38696569     0.19300
C3217       C  0.63471691  0.13595454  0.43400059    -0.06500
C3218       C  0.63362111  0.11401054  0.45561970    -0.17600
C3219       C  0.64108335  0.08601846  0.44906895     0.10700
C3220       C  0.65057011  0.07926887  0.42034156    -0.06400
C3221       C  0.65094426  0.10087070  0.39836261    -0.17700
C3222       C  0.64267607  0.12888311  0.40464732     0.10700
S3223       S  0.63934907  0.06013428  0.47883540    -0.32600
S3224       S  0.64288113  0.15424582  0.37428665    -0.32600
H3225       H  0.62155492  0.17119929  0.38480504     0.28700
H3226       H  0.63707255  0.03639124  0.46022553     0.28700
H3227       H  0.62690431  0.11874093  0.47811128     0.19300
H3228       H  0.65884330  0.09610397  0.37636632     0.19300
C3229       C  0.67230106  0.39895802  0.04707464    -0.06500
C3230       C  0.68908754  0.37472274  0.04216925    -0.17600
C3231       C  0.67882785  0.34729880  0.04013210     0.10700
C3232       C  0.65100556  0.34317955  0.04324357    -0.06400
C3233       C  0.63436312  0.36701084  0.04930002    -0.17700
C3234       C  0.64439826  0.39466759  0.05084679     0.10700
S3235       S  0.70203692  0.31877235  0.03171141    -0.32600
S3236       S  0.62088543  0.42380066  0.05632010    -0.32600
H3237       H  0.59783563  0.40742188  0.06206097     0.28700
H3238       H  0.68657065  0.30802869  0.00804041     0.28700
H3239       H  0.71066606  0.37685461  0.03931656     0.19300
H3240       H  0.61281537  0.36425702  0.05013743     0.19300
C3241       C  0.63264687  0.14012833  0.04180425    -0.06500
C3242       C  0.65813463  0.14020143  0.05554592    -0.17600
C3243       C  0.67179145  0.11481535  0.06344727     0.10700
C3244       C  0.66046766  0.08791829  0.05632716    -0.06400
C3245       C  0.63412038  0.08770444  0.04491895    -0.17700
C3246       C  0.61992607  0.11320992  0.03814326     0.10700
S3247       S  0.70312954  0.11758495  0.08423046    -0.32600
S3248       S  0.58534041  0.11046126  0.02542808    -0.32600
H3249       H  0.58276523  0.08095031  0.02901902     0.28700
H3250       H  0.70745214  0.14665923  0.07908576     0.28700
H3251       H  0.66764572  0.16033399  0.05982937     0.19300
H3252       H  0.62489485  0.06743820  0.04055211     0.19300
C3253       C  0.57665290  0.34102606  0.38626485    -0.06500
C3254       C  0.59563183  0.32805152  0.36705658    -0.17600
C3255       C  0.59335208  0.33089596  0.33581508     0.10700
C3256       C  0.57299105  0.34857879  0.32395159    -0.06400
C3257       C  0.55778681  0.36568767  0.34360650    -0.17700
C3258       C  0.55876022  0.36148640  0.37449403     0.10700
S3259       S  0.61300742  0.30845945  0.31149424    -0.32600
S3260       S  0.53348335  0.37901344  0.39686239    -0.32600
H3261       H  0.54634883  0.37424365  0.42451060     0.28700
H3262       H  0.62877535  0.29545182  0.33406091     0.28700
H3263       H  0.60950307  0.31232940  0.37624507     0.19300
H3264       H  0.54166751  0.37901402  0.33468092     0.19300
C3265       C  0.56566878  0.34373178  0.06865709    -0.06500
C3266       C  0.58402352  0.33078478  0.08897909    -0.17600
C3267       C  0.57977949  0.33188491  0.11994485     0.10700
C3268       C  0.55726815  0.34689756  0.13050749    -0.06400
C3269       C  0.54180088  0.36367415  0.11044486    -0.17700
C3270       C  0.54570683  0.36211423  0.07962486     0.10700
S3271       S  0.60066289  0.31118916  0.14521349    -0.32600
S3272       S  0.52270036  0.38114363  0.05530977    -0.32600
H3273       H  0.53939467  0.37987891  0.02993600     0.28700
H3274       H  0.61981956  0.30259339  0.12384558     0.28700
H3275       H  0.59965003  0.31681341  0.08055095     0.19300
H3276       H  0.52500809  0.37617321  0.11875111     0.19300
C3277       C  0.56356698  0.16601338  0.38052843    -0.06500
C3278       C  0.57231621  0.17959509  0.35391122    -0.17600
C3279       C  0.57563431  0.16490322  0.32705610     0.10700
C3280       C  0.56889896  0.13608989  0.32584903    -0.06400
C3281       C  0.56409217  0.12166357  0.35307691    -0.17700
C3282       C  0.56134152  0.13613672  0.38032831     0.10700
S3283       S  0.58609024  0.18460984  0.29454981    -0.32600
S3284       S  0.55248220  0.11619613  0.41346541    -0.32600
H3285       H  0.55738722  0.08905427  0.40165230     0.28700
H3286       H  0.60158938  0.16209565  0.28288556     0.28700
H3287       H  0.57626273  0.20215103  0.35365304     0.19300
H3288       H  0.55937456  0.09934215  0.35240417     0.19300
C3289       C  0.55144527  0.15466110  0.13834534    -0.06500
C3290       C  0.53939812  0.13872519  0.11535079    -0.17600
C3291       C  0.53870535  0.14859312  0.08558146     0.10700
C3292       C  0.55073109  0.17478836  0.07859179    -0.06400
C3293       C  0.56497287  0.18907091  0.10120725    -0.17700
C3294       C  0.56534477  0.17943106  0.13074896     0.10700
S3295       S  0.51990722  0.12844765  0.05867200    -0.32600
S3296       S  0.58108783  0.20146515  0.15837935    -0.32600
H3297       H  0.58661261  0.17930954  0.17877746     0.28700
H3298       H  0.50907907  0.15211569  0.04331783     0.28700
H3299       H  0.52798323  0.11999194  0.12113490     0.19300
H3300       H  0.57499460  0.20886302  0.09609312     0.19300
O3301       O  0.61207803  0.18965765  0.54976755    -0.75700
O3302       O  0.59106281  0.16280491  0.51483617    -0.54600
C3303       C  0.60403966  0.16539105  0.53920598     0.78100
O3304       O  0.53161292  0.30179809  0.53782987    -0.60300
O3305       O  0.56376780  0.33040106  0.51786756    -0.53300
C3306       C  0.54619589  0.32407325  0.53804067     0.70100
O3307       O  0.53115157  0.21452874  0.54677206    -0.74800
O3308       O  0.54508426  0.17524729  0.52202207    -0.55400
C3309       C  0.53718904  0.18808891  0.54597886     0.76100
O3310       O  0.62377409  0.29076929  0.55234904    -0.60000
O3311       O  0.61101606  0.32504839  0.51846233    -0.53100
C3312       C  0.62108407  0.31721553  0.54339364     0.72700
Zr3313     Zr  0.61265773  0.24115805  0.53352097     2.54700
O3314       O  0.61008494  0.23917705  0.58783946    -0.80500
O3315       O  0.66146937  0.23430781  0.53498621    -0.94000
Zr3316     Zr  0.53327512  0.25553733  0.51446862     2.64700
O3317       O  0.50606347  0.26965033  0.55752944    -0.98900
O3318       O  0.48807633  0.25568448  0.49329064    -0.81000
O3319       O  0.57086029  0.22733492  0.51792319    -0.84300
O3320       O  0.57659675  0.27306296  0.52482348    -2.19000
O3321       O  0.63760479  0.28985812  0.91338199    -0.67700
O3322       O  0.63624993  0.30672424  0.95852528    -0.52300
C3323       C  0.63831377  0.31133761  0.93083997     0.71000
O3324       O  0.54552327  0.21333790  0.90768416    -0.60600
O3325       O  0.55044288  0.17627867  0.93988889    -0.52600
C3326       C  0.54754849  0.18663571  0.91326115     0.72800
O3327       O  0.54812579  0.30458689  0.91115456    -0.72000
O3328       O  0.57576317  0.33378589  0.93751174    -0.50700
C3329       C  0.56180084  0.32747953  0.91427575     0.74200
O3330       O  0.62346625  0.19201356  0.91717506    -0.67400
O3331       O  0.59794881  0.16607919  0.94918882    -0.54600
C3332       C  0.61305461  0.16832063  0.92625836     0.72600
Zr3333     Zr  0.62509285  0.24228519  0.93418101     2.77500
O3334       O  0.63293401  0.23754181  0.88072623    -0.98100
O3335       O  0.67327016  0.23605075  0.94347805    -0.78900
Zr3336     Zr  0.54390894  0.25777138  0.93467008     2.70100
O3337       O  0.52610306  0.26135107  0.88391227    -0.80200
O3338       O  0.49537273  0.26243419  0.94143621    -0.99300
Zr3339     Zr  0.57544073  0.19826650  0.98088280     2.21500
Zr3340     Zr  0.58793506  0.30023190  0.48204455     2.11100
O3341       O  0.58842865  0.27545055  0.93374581    -2.47900
O3342       O  0.58048390  0.22493110  0.93628346    -0.80000
O3343       O  0.62892174  0.27004473  0.97842446    -0.72200
O3344       O  0.53432512  0.22633522  0.47107102    -2.33100
O3345       O  0.62090521  0.21558267  0.97947113    -2.29300
O3346       O  0.54353719  0.28404049  0.47207411    -0.73900
H3347       H  0.57611901  0.28309897  0.54331258     0.78100
H3348       H  0.51794878  0.21590915  0.46750674     0.79200
H3349       H  0.59109795  0.28542995  0.91526330     0.81400
H3350       H  0.63409719  0.20033805  0.97957302     0.79000
H3351       H  0.48520263  0.27535097  0.48592460     0.42000
H3352       H  0.49179197  0.28311955  0.94022390     0.41000
H3353       H  0.54224367  0.26047828  0.87088243     0.40700
H3354       H  0.61961281  0.25060403  0.87121238     0.38600
H3355       H  0.68093192  0.25512242  0.94006216     0.41700
H3356       H  0.66464499  0.22171618  0.55249561     0.36500
H3357       H  0.59629549  0.25366179  0.59308667     0.42600
H3358       H  0.48730666  0.27190015  0.55008557     0.39100
H3359       H  0.65067006  0.24645993  0.87714202     0.44000
H3360       H  0.66862615  0.25290344  0.54115556     0.42700
H3361       H  0.50571104  0.25344214  0.57169203     0.42800
H3362       H  0.48743426  0.25486605  0.92284484     0.43200
O3363       O  0.90241999  0.20070847  0.57981708    -0.75700
O3364       O  0.89100369  0.16210665  0.55268456    -0.54600
C3365       C  0.89643332  0.17446901  0.57773302     0.78100
O3366       O  0.82172160  0.29354212  0.55063478    -0.60300
O3367       O  0.85183559  0.32200902  0.52628862    -0.53300
C3368       C  0.83103495  0.31828561  0.54256055     0.70100
O3369       O  0.81789820  0.19100239  0.55774644    -0.74800
O3370       O  0.85255903  0.16424381  0.04285656    -0.55400
C3371       C  0.82564834  0.16497821  0.55166670     0.76100
O3372       O  0.93094411  0.28489188  0.55510299    -0.60000
O3373       O  0.90018186  0.31701069  0.54074285    -0.53100
C3374       C  0.91503387  0.30551117  0.56118346     0.72700
Zr3375     Zr  0.91743795  0.23641234  0.54559822     2.54700
O3376       O  0.94258432  0.23588540  0.59270721    -0.80500
O3377       O  0.96160640  0.21516658  0.53562832    -0.94000
Zr3378     Zr  0.83361808  0.24142612  0.54523120     2.64700
O3379       O  0.83609679  0.24310212  0.59957930    -0.98900
O3380       O  0.78453094  0.24466051  0.54714248    -0.81000
O3381       O  0.87435151  0.21500353  0.54654727    -0.84300
O3382       O  0.87645581  0.26404497  0.54471667    -2.19000
O3383       O  0.91497742  0.28298233  0.92722910    -0.67700
O3384       O  0.89520562  0.31933633  0.95254411    -0.52300
C3385       C  0.90408279  0.30772748  0.92833801     0.71000
O3386       O  0.81955328  0.19158676  0.95463771    -0.60600
O3387       O  0.84533486  0.16147363  0.98342585    -0.52600
C3388       C  0.82668758  0.16626570  0.96419074     0.72800
O3389       O  0.81843564  0.29420207  0.95562809    -0.72000
O3390       O  0.84999014  0.32518332  0.97305102    -0.50700
C3391       C  0.82819708  0.31966787  0.95925307     0.74200
O3392       O  0.89958974  0.19621237  0.93134168    -0.67400
O3393       O  0.89167933  0.16128884  0.96521838    -0.54600
C3394       C  0.89368666  0.17069520  0.93813414     0.72600
Zr3395     Zr  0.91218696  0.23914962  0.95519249     2.77500
O3396       O  0.92892105  0.23761842  0.90390661    -0.98100
O3397       O  0.95987836  0.22786307  0.96171765    -0.78900
Zr3398     Zr  0.83092784  0.24271269  0.96745526     2.70100
O3399       O  0.81844114  0.24499725  0.91485028    -0.80200
O3400       O  0.78371417  0.24298196  0.98266105    -0.99300
Zr3401     Zr  0.87756144  0.19009886  0.00812968     2.21500
Zr3402     Zr  0.88080343  0.29657119  0.99974489     2.11100
O3403       O  0.87177179  0.26655521  0.95838547    -2.47900
O3404       O  0.87198539  0.22013394  0.96913633    -0.80000
O3405       O  0.92228902  0.27079267  0.99453419    -0.72200
O3406       O  0.83586120  0.21645609  0.01268320    -2.33100
O3407       O  0.92015832  0.21117026  0.99873561    -2.29300
O3408       O  0.83817088  0.27333146  0.00857014    -0.73900
H3409       H  0.87490478  0.27596360  0.56195136     0.78100
H3410       H  0.82054236  0.20427556  0.01589539     0.79200
H3411       H  0.86741785  0.27633953  0.94004004     0.81400
H3412       H  0.93347544  0.19630077  0.99612486     0.79000
H3413       H  0.78062706  0.25486344  0.56593090     0.42000
H3414       H  0.77516186  0.25813936  0.97032015     0.41000
H3415       H  0.79931626  0.23904825  0.91440121     0.40700
H3416       H  0.91282454  0.23447297  0.89120487     0.38600
H3417       H  0.96233656  0.20905858  0.95232052     0.41700
H3418       H  0.96312198  0.19880524  0.54954091     0.36500
H3419       H  0.95671981  0.25044618  0.59060542     0.42600
H3420       H  0.82173037  0.23016361  0.60649169     0.39100
H3421       H  0.93969331  0.21986885  0.90241401     0.44000
H3422       H  0.97474057  0.22893722  0.54325002     0.42700
H3423       H  0.85317284  0.23302163  0.60468702     0.42800
H3424       H  0.77634586  0.22516237  0.97456882     0.43200
O3425       O  0.67150572  0.06192181  0.64259453    -0.75700
O3426       O  0.64780022  0.02209288  0.64574912    -0.54600
C3427       C  0.64860406  0.04881371  0.64490815     0.78100
O3428       O  0.75455896  0.05318782  0.54022652    -0.60300
O3429       O  0.78857136  0.03293999  0.56739770    -0.53300
C3430       C  0.77831193  0.05367323  0.55169341     0.70100
O3431       O  0.67374074  0.05908887  0.56018665    -0.74800
O3432       O  0.63999753  0.03417147  0.58165319    -0.55400
C3433       C  0.64983136  0.05719532  0.57044368     0.76100
O3434       O  0.76890388  0.05170617  0.65144652    -0.60000
O3435       O  0.79567071  0.02252010  0.62404760    -0.53100
C3436       C  0.79261513  0.04225188  0.64279832     0.72700
Zr3437     Zr  0.71909110  0.04155795  0.64147395     2.54700
O3438       O  0.72518655  0.09274351  0.64206050    -0.80500
O3439       O  0.71502526  0.04150989  0.69572426    -0.94000
Zr3440     Zr  0.71260575  0.02963603  0.55223213     2.64700
O3441       O  0.71184237  0.07097399  0.51890461    -0.98900
O3442       O  0.69806918  0.01208148  0.50392786    -0.81000
O3443       O  0.69493085  0.03117645  0.59914713    -0.84300
O3444       O  0.74047085  0.03630304  0.59490715    -2.19000
O3445       O  0.76677136  0.44336039  0.66000765    -0.67700
O3446       O  0.79479971  0.46692216  0.62787644    -0.52300
C3447       C  0.79058107  0.45045821  0.65019823     0.71000
O3448       O  0.68120768  0.42410478  0.58836248    -0.60600
O3449       O  0.64331053  0.44941643  0.58361925    -0.52600
C3450       C  0.65576460  0.42514076  0.58502573     0.72800
O3451       O  0.75496542  0.42877696  0.54576174    -0.72000
O3452       O  0.78928107  0.45112124  0.56896901    -0.50700
C3453       C  0.77958222  0.42977710  0.55440075     0.74200
O3454       O  0.66933719  0.44157241  0.66226809    -0.67400
O3455       O  0.63842376  0.46756167  0.63506824    -0.54600
C3456       C  0.64461774  0.44947846  0.65519812     0.72600
Zr3457     Zr  0.71784369  0.45375109  0.64764760     2.77500
O3458       O  0.71777841  0.40225442  0.65204710    -0.98100
O3459       O  0.72100276  0.46097906  0.70143672    -0.78900
Zr3460     Zr  0.71214217  0.44988679  0.55826142     2.70100
O3461       O  0.71043059  0.40184170  0.53858930    -0.80200
O3462       O  0.68607978  0.45028902  0.51177005    -0.99300
Zr3463     Zr  0.66431871  0.49395459  0.60208680     2.21500
Zr3464     Zr  0.76709714  0.99385078  0.59600782     2.11100
O3465       O  0.74076708  0.45015343  0.60088174    -2.47900
O3466       O  0.69539982  0.45939338  0.60389269    -0.80000
O3467       O  0.74587573  0.99949808  0.64413658    -0.72200
O3468       O  0.68489772  0.98897355  0.55794082    -2.33100
O3469       O  0.69126698  0.49572254  0.64740293    -2.29300
O3470       O  0.74036184  0.98794336  0.55228721    -0.73900
H3471       H  0.75022208  0.05383344  0.59456013     0.78100
H3472       H  0.67072331  0.98722131  0.54323080     0.79200
H3473       H  0.75171930  0.43315713  0.60222443     0.81400
H3474       H  0.68149520  0.49619946  0.66604801     0.79000
H3475       H  0.67916623  0.01879347  0.50166110     0.42000
H3476       H  0.69386682  0.43548211  0.49876231     0.41000
H3477       H  0.71458122  0.38928707  0.55588310     0.40700
H3478       H  0.71300625  0.39854681  0.67319260     0.38600
H3479       H  0.70364963  0.47005054  0.70710647     0.41700
H3480       H  0.70828395  0.06076994  0.70060332     0.36500
H3481       H  0.71556295  0.09919494  0.66019340     0.42600
H3482       H  0.70851886  0.08764814  0.53175410     0.39100
H3483       H  0.70171198  0.39629292  0.64059388     0.44000
H3484       H  0.73390442  0.04108048  0.70310944     0.42700
H3485       H  0.69526183  0.06937023  0.50665218     0.42800
H3486       H  0.66830563  0.44269011  0.51773488     0.43200
O3487       O  0.67807377  0.06607801  0.90418307    -0.75700
O3488       O  0.64506891  0.03510422  0.89269800    -0.54600
C3489       C  0.65359066  0.06037872  0.89755429     0.78100
O3490       O  0.77913807  0.02928257  0.81856584    -0.60300
O3491       O  0.80372965  0.01199814  0.85793987    -0.53300
C3492       C  0.80208358  0.02263528  0.83160630     0.70100
O3493       O  0.68231877  0.04241039  0.80996530    -0.74800
O3494       O  0.65108722  0.01610387  0.83477583    -0.55400
C3495       C  0.65758079  0.03402743  0.81484327     0.76100
O3496       O  0.75930583  0.06262520  0.93058728    -0.60000
O3497       O  0.79446032  0.03365406  0.91788458    -0.53100
C3498       C  0.78453800  0.05743807  0.92798776     0.72700
Zr3499     Zr  0.71735608  0.03973599  0.92035257     2.54700
O3500       O  0.71645148  0.08852613  0.93804357    -0.80500
O3501       O  0.70294925  0.03593020  0.97228513    -0.94000
Zr3502     Zr  0.72893121  0.02946902  0.83095638     2.64700
O3503       O  0.73592326  0.08037063  0.82658139    -0.98900
O3504       O  0.73120509  0.02528337  0.77681438    -0.81000
O3505       O  0.69865724  0.03602803  0.87170313    -0.84300
O3506       O  0.74815871  0.03465645  0.87964357    -2.19000
O3507       O  0.75639066  0.43033455  0.94485482    -0.67700
O3508       O  0.79217225  0.45324521  0.92521405    -0.52300
C3509       C  0.78155287  0.43172452  0.93901843     0.71000
O3510       O  0.67326120  0.43314229  0.83070651    -0.60600
O3511       O  0.64253557  0.46402727  0.85047835    -0.52600
C3512       C  0.64834418  0.44243069  0.83510476     0.72800
O3513       O  0.77266746  0.43890845  0.83452621    -0.72000
O3514       O  0.79967128  0.46448543  0.86583148    -0.50700
C3515       C  0.79628681  0.44713161  0.84440203     0.74200
O3516       O  0.67868648  0.42362676  0.92030270    -0.67400
O3517       O  0.64462690  0.45224086  0.90413165    -0.54600
C3518       C  0.65441384  0.42772945  0.91183583     0.72600
Zr3519     Zr  0.71463554  0.45403779  0.93372428     2.77500
O3520       O  0.71371025  0.41229667  0.96652173    -0.98100
O3521       O  0.69806096  0.46857299  0.98251307    -0.78900
Zr3522     Zr  0.72235640  0.44658210  0.84481168     2.70100
O3523       O  0.72446380  0.39519322  0.85084576    -0.80200
O3524       O  0.72378571  0.44119501  0.79066838    -0.99300
Zr3525     Zr  0.66869238  0.49235188  0.88081446     2.21500
Zr3526     Zr  0.77003482  0.49223867  0.89526253     2.11100
O3527       O  0.74414117  0.44973235  0.89217428    -2.47900
O3528       O  0.69775160  0.45575557  0.88644112    -0.80000
O3529       O  0.74135481  0.49549363  0.93765079    -0.72200
O3530       O  0.69666403  0.48848385  0.83702775    -2.33100
O3531       O  0.68633698  0.49473872  0.92986229    -2.29300
O3532       O  0.74945282  0.48810701  0.84615396    -0.73900
H3533       H  0.76002550  0.05066290  0.87774714     0.78100
H3534       H  0.68642620  0.48689723  0.81872688     0.79200
H3535       H  0.75519140  0.43280177  0.89233762     0.81400
H3536       H  0.67214554  0.49452109  0.94463503     0.79000
H3537       H  0.73154767  0.00459567  0.77317601     0.42000
H3538       H  0.74312234  0.43854315  0.78570763     0.41000
H3539       H  0.73908474  0.39161723  0.86558211     0.40700
H3540       H  0.71416477  0.39569040  0.95309534     0.38600
H3541       H  0.67997678  0.45995980  0.98445251     0.41700
H3542       H  0.68376682  0.04211935  0.97210046     0.36500
H3543       H  0.71927276  0.10038436  0.91995912     0.42600
H3544       H  0.73193370  0.08483827  0.80535045     0.39100
H3545       H  0.69549358  0.41191469  0.97559618     0.44000
H3546       H  0.71240231  0.05140800  0.98268271     0.42700
H3547       H  0.72069140  0.08896327  0.83774569     0.42800
H3548       H  0.71903491  0.46017830  0.78251192     0.43200
O3549       O  0.51742582  0.08146607  0.66066044    -0.75700
O3550       O  0.54951136  0.09699630  0.69337478    -0.54600
C3551       C  0.54241646  0.08684160  0.66834060     0.78100
O3552       O  0.91971036  0.18099157  0.71415593    -0.60300
O3553       O  0.89248183  0.14462717  0.72020154    -0.53300
C3554       C  0.90147228  0.16485992  0.70374428     0.70100
O3555       O  0.50296043  0.16526203  0.67185233    -0.74800
O3556       O  0.54174345  0.14616919  0.69075478    -0.55400
C3557       C  0.52784626  0.15780562  0.66920507     0.76100
O3558       O  0.91823240  0.07724416  0.68064604    -0.60000
O3559       O  0.89305057  0.09216564  0.72006857    -0.53100
C3560       C  0.89514591  0.08124893  0.69436939     0.72700
Zr3561     Zr  0.96846956  0.08488178  0.68988604     2.54700
O3562       O  0.96256304  0.09547781  0.63688912    -0.80500
O3563       O  0.96851139  0.03394300  0.68152135    -0.94000
Zr3564     Zr  0.96782055  0.16947708  0.71509474     2.64700
O3565       O  0.96006096  0.20753707  0.67840674    -0.98900
O3566       O  0.98453901  0.21306948  0.73720803    -0.81000
O3567       O  0.49286748  0.12655475  0.69578406    -0.84300
O3568       O  0.94494605  0.12560543  0.70682126    -2.19000
O3569       O  0.93186848  0.04332005  0.78596289    -0.67700
O3570       O  0.89976593  0.07659390  0.77364458    -0.52300
C3571       C  0.90681980  0.05231462  0.78385180     0.71000
O3572       O  0.52065557  0.11387858  0.80436580    -0.60600
O3573       O  0.55095169  0.13450198  0.77630168    -0.52600
C3574       C  0.54233957  0.12785787  0.80259309     0.72800
O3575       O  0.93905951  0.14063123  0.82827571    -0.72000
O3576       O  0.90233393  0.13001073  0.79989610    -0.50700
C3577       C  0.91393046  0.13522907  0.82510369     0.74200
O3578       O  0.52886743  0.04823301  0.77417720    -0.67400
O3579       O  0.55516716  0.07932064  0.74792824    -0.54600
C3580       C  0.55216616  0.05797627  0.76521064     0.72600
Zr3581     Zr  0.97886400  0.06176906  0.77414401     2.77500
O3582       O  0.98434453  0.04789852  0.82635840    -0.98100
O3583       O  0.98044185  0.01308464  0.75656876    -0.78900
Zr3584     Zr  0.97905345  0.14430903  0.79815225     2.70100
O3585       O  0.98396738  0.15479648  0.85122151    -0.80200
O3586       O  0.98669123  0.19516469  0.80227336    -0.99300
Zr3587     Zr  0.52515684  0.11601198  0.73284588     2.21500
Zr3588     Zr  0.92273741  0.11538182  0.75236555     2.11100
O3589       O  0.95394027  0.10203938  0.79044181    -2.47900
O3590       O  0.50353821  0.09905218  0.77657591    -0.80000
O3591       O  0.94727038  0.07392090  0.73612132    -0.72200
O3592       O  0.50171138  0.15670893  0.75074649    -2.33100
O3593       O  0.50111654  0.07292611  0.72185374    -2.29300
O3594       O  0.94631175  0.15819723  0.76146902    -0.73900
H3595       H  0.93186312  0.12641580  0.69127654     0.78100
H3596       H  0.51451249  0.17143569  0.75510810     0.79200
H3597       H  0.94499249  0.09521887  0.80814144     0.81400
H3598       H  0.51337294  0.05815060  0.71533967     0.79000
H3599       H  0.00153096  0.21705430  0.72638180     0.42000
H3600       H  0.97263724  0.20203275  0.81625344     0.41000
H3601       H  0.00317802  0.15974114  0.85418102     0.40700
H3602       H  0.98702565  0.06602488  0.83694950     0.38600
H3603       H  0.99529843  0.01261521  0.74179976     0.41700
H3604       H  0.48725021  0.02647665  0.68103141     0.36500
H3605       H  0.44520346  0.10120440  0.62780157     0.42600
H3606       H  0.94872038  0.22181241  0.68872733     0.39100
H3607       H  0.96625173  0.04156293  0.83276126     0.44000
H3608       H  0.95201084  0.02720853  0.69171524     0.42700
H3609       H  0.97775718  0.21675749  0.67557012     0.42800
H3610       H  0.00390179  0.19682740  0.81343368     0.43200
O3611       O  0.50378890  0.32977482  0.65852362    -0.75700
O3612       O  0.54125330  0.34319302  0.68390749    -0.54600
C3613       C  0.52839043  0.33789655  0.65939436     0.78100
O3614       O  0.91945046  0.42031805  0.68387212    -0.60300
O3615       O  0.89180381  0.39420030  0.71401134    -0.53300
C3616       C  0.89574231  0.41260720  0.69343855     0.70100
O3617       O  0.51384837  0.41917215  0.67422812    -0.74800
O3618       O  0.54501212  0.39310197  0.70065929    -0.55400
C3619       C  0.53862754  0.41200985  0.68151697     0.76100
O3620       O  0.92484279  0.30519009  0.69884270    -0.60000
O3621       O  0.89600409  0.34118905  0.70286489    -0.53100
C3622       C  0.90578920  0.32041111  0.68791599     0.72700
Zr3623     Zr  0.97130831  0.32060816  0.70024226     2.54700
O3624       O  0.96239904  0.29980491  0.65160195    -0.80500
O3625       O  0.99056337  0.27349609  0.70773699    -0.94000
Zr3626     Zr  0.96839656  0.40828767  0.69476611     2.64700
O3627       O  0.96508926  0.40806146  0.64042118    -0.98900
O3628       O  0.96966542  0.45987693  0.69605653    -0.81000
O3629       O  0.49056313  0.36167109  0.69075490    -0.84300
O3630       O  0.94586964  0.36401910  0.69768855    -2.19000
O3631       O  0.93215498  0.32181396  0.81161568    -0.67700
O3632       O  0.89739908  0.34107634  0.78438041    -0.52300
C3633       C  0.90743038  0.32977562  0.80832686     0.71000
O3634       O  0.52337082  0.41568585  0.78854537    -0.60600
O3635       O  0.55046419  0.39124145  0.75653871    -0.52600
C3636       C  0.54714283  0.40850897  0.77780752     0.72800
O3637       O  0.92457882  0.42042932  0.80046473    -0.72000
O3638       O  0.89469517  0.39458789  0.77314563    -0.50700
C3639       C  0.90012854  0.41214961  0.79369877     0.74200
O3640       O  0.51739805  0.33078210  0.80431064    -0.67400
O3641       O  0.54993045  0.34265996  0.77109427    -0.54600
C3642       C  0.54147406  0.33841821  0.79798276     0.72600
Zr3643     Zr  0.97524349  0.32507776  0.78608784     2.77500
O3644       O  0.98027524  0.29894482  0.83313539    -0.98100
O3645       O  0.98429870  0.27548285  0.77439428    -0.78900
Zr3646     Zr  0.97296054  0.41062657  0.78329384     2.70100
O3647       O  0.97696467  0.41414230  0.83739089    -0.80200
O3648       O  0.97137460  0.46196625  0.77792388    -0.99300
Zr3649     Zr  0.52118437  0.36161729  0.73058217     2.21500
Zr3650     Zr  0.92090443  0.36450131  0.74314022     2.11100
O3651       O  0.94889401  0.36766586  0.78666224    -2.47900
O3652       O  0.49783861  0.36332595  0.77618093    -0.80000
O3653       O  0.94532849  0.32056256  0.74495306    -0.72200
O3654       O  0.49603262  0.40554072  0.73205408    -2.33100
O3655       O  0.50068698  0.31651215  0.73449675    -2.29300
O3656       O  0.94409688  0.40908256  0.74060319    -0.73900
H3657       H  0.93468191  0.36402851  0.68012197     0.78100
H3658       H  0.50769762  0.42180260  0.73095421     0.79200
H3659       H  0.93911433  0.36998524  0.80504826     0.81400
H3660       H  0.51415609  0.30153819  0.73434532     0.79000
H3661       H  0.47686405  0.46328073  0.67750430     0.42000
H3662       H  0.95724995  0.46820322  0.79213388     0.41000
H3663       H  0.96477798  0.39937307  0.84532166     0.40700
H3664       H  0.97367250  0.31204904  0.84875778     0.38600
H3665       H  0.96629739  0.26652334  0.77431300     0.41700
H3666       H  0.00319503  0.27091775  0.69082510     0.36500
H3667       H  0.46011543  0.27748994  0.64678563     0.42600
H3668       H  0.95396464  0.39131685  0.63577980     0.39100
H3669       H  0.96663421  0.28373042  0.83243497     0.44000
H3670       H  0.97527236  0.26091960  0.70320984     0.42700
H3671       H  0.95338183  0.42456672  0.63531731     0.42800
H3672       H  0.98850251  0.46833631  0.78703994     0.43200
C3673       C  0.82247257  0.43734861  0.83085028    -0.06500
C3674       C  0.84363200  0.45730288  0.82811196    -0.17600
C3675       C  0.86971520  0.44965047  0.81808987     0.10700
C3676       C  0.87521171  0.42147500  0.81010501    -0.06400
C3677       C  0.85435104  0.40135208  0.81385628    -0.17700
C3678       C  0.82852908  0.40879355  0.82443095     0.10700
S3679       S  0.89514592  0.47636608  0.81428958    -0.32600
S3680       S  0.80481321  0.38065907  0.83068092    -0.32600
H3681       H  0.79482538  0.39162513  0.85769474     0.28700
H3682       H  0.88626073  0.49135583  0.83949329     0.28700
H3683       H  0.83973185  0.47924850  0.83367374     0.19300
H3684       H  0.85820147  0.37931955  0.80843743     0.19300
C3685       C  0.62331997  0.42957174  0.82176441    -0.06500
C3686       C  0.62330239  0.42144304  0.79185614    -0.17600
C3687       C  0.59895697  0.41589313  0.77647652     0.10700
C3688       C  0.57334478  0.41820769  0.79139319    -0.06400
C3689       C  0.57348384  0.42600234  0.82124889    -0.17700
C3690       C  0.59760941  0.43138685  0.83657183     0.10700
S3691       S  0.60156458  0.40710746  0.73734249    -0.32600
S3692       S  0.59374258  0.44133933  0.87513338    -0.32600
H3693       H  0.56928413  0.42719781  0.88037212     0.28700
H3694       H  0.62968782  0.40983311  0.73423680     0.28700
H3695       H  0.64238521  0.42083554  0.78010795     0.19300
H3696       H  0.55440610  0.42756591  0.83295007     0.19300
C3697       C  0.88295738  0.03534655  0.79377306    -0.06500
C3698       C  0.85995654  0.03537008  0.77484456    -0.17600
C3699       C  0.83355291  0.03041795  0.78575027     0.10700
C3700       C  0.82940366  0.02670067  0.81682006    -0.06400
C3701       C  0.85286555  0.02462354  0.83515539    -0.17700
C3702       C  0.87914006  0.02800082  0.82393090     0.10700
S3703       S  0.80581401  0.02874234  0.75957922    -0.32600
S3704       S  0.90695112  0.02429343  0.84961505    -0.32600
H3705       H  0.92351734  0.00976879  0.82918749     0.28700
H3706       H  0.82164172  0.02766800  0.73350723     0.28700
H3707       H  0.86259150  0.04080782  0.75146845     0.19300
H3708       H  0.85098061  0.02052714  0.85890131     0.19300
C3709       C  0.57834961  0.04703935  0.77731632    -0.06500
C3710       C  0.60064838  0.04383345  0.75775208    -0.17600
C3711       C  0.62755589  0.04213696  0.76841977     0.10700
C3712       C  0.63274200  0.04504638  0.79929614    -0.06400
C3713       C  0.61028625  0.04939490  0.81835962    -0.17700
C3714       C  0.58354574  0.04887906  0.80807690     0.10700
S3715       S  0.64349487  0.59897280  0.80455589    -0.32600
S3716       S  0.55621296  0.05132310  0.83461002    -0.32600
H3717       H  0.57180225  0.04604133  0.86040084     0.28700
H3718       H  0.65365766  0.58748673  0.83144752     0.28700
H3719       H  0.59706590  0.04323751  0.73385014     0.19300
H3720       H  0.61374022  0.05127966  0.84217088     0.19300
C3721       C  0.81583385  0.43917422  0.66433152    -0.06500
C3722       C  0.83251861  0.45822020  0.67981050    -0.17600
C3723       C  0.85926261  0.45102201  0.68814498     0.10700
C3724       C  0.87019675  0.42426398  0.68029765    -0.06400
C3725       C  0.85329718  0.40511393  0.66535586    -0.17700
C3726       C  0.82666877  0.41225335  0.65699579     0.10700
S3727       S  0.87814597  0.47681351  0.70897321    -0.32600
S3728       S  0.80776281  0.38561962  0.63735939    -0.32600
H3729       H  0.78949288  0.40374937  0.62245105     0.28700
H3730       H  0.89332679  0.45731857  0.72620876     0.28700
H3731       H  0.82473390  0.47916823  0.68507030     0.19300
H3732       H  0.86076036  0.38398360  0.66056608     0.19300
C3733       C  0.61981473  0.43776485  0.66891845    -0.06500
C3734       C  0.60012148  0.45775523  0.67837146    -0.17600
C3735       C  0.57234755  0.45151642  0.67876581     0.10700
C3736       C  0.56333005  0.42492469  0.66874729    -0.06400
C3737       C  0.58308492  0.40524302  0.65889993    -0.17700
C3738       C  0.61084754  0.41080849  0.66047667     0.10700
S3739       S  0.54946092  0.47769785  0.69367928    -0.32600
S3740       S  0.63399755  0.38202016  0.65354147    -0.32600
H3741       H  0.65410628  0.39166517  0.67310659     0.28700
H3742       H  0.52809620  0.47104378  0.67431296     0.28700
H3743       H  0.60639878  0.47898441  0.68418538     0.19300
H3744       H  0.57697173  0.38397660  0.65316431     0.19300
C3745       C  0.86854552  0.07301532  0.68063867    -0.06500
C3746       C  0.86882085  0.05521797  0.65597825    -0.17600
C3747       C  0.84494301  0.04473721  0.64344540     0.10700
C3748       C  0.81897335  0.05356145  0.65474958    -0.06400
C3749       C  0.81865741  0.07212710  0.67893317    -0.17700
C3750       C  0.84269720  0.08159591  0.69236221     0.10700
S3751       S  0.84952859  0.01935774  0.61355024    -0.32600
S3752       S  0.83891041  0.10411443  0.72485080    -0.32600
H3753       H  0.81068697  0.10776946  0.72390572     0.28700
H3754       H  0.87668059  0.01203675  0.61930870     0.28700
H3755       H  0.88813179  0.04867818  0.64689847     0.19300
H3756       H  0.79932248  0.07852279  0.68803619     0.19300
C3757       C  0.62112901  0.06265451  0.64400169    -0.06500
C3758       C  0.59903109  0.04521989  0.63581915    -0.17600
C3759       C  0.57209697  0.05415655  0.63838279     0.10700
C3760       C  0.56640110  0.08139256  0.64904523    -0.06400
C3761       C  0.58832911  0.10039671  0.65225043    -0.17700
C3762       C  0.61541468  0.09108848  0.65116062     0.10700
S3763       S  0.54600715  0.02880781  0.63111106    -0.32600
S3764       S  0.64108704  0.11542261  0.66278574    -0.32600
H3765       H  0.65381208  0.09589395  0.68232980     0.28700
H3766       H  0.52834052  0.04892747  0.61800019     0.28700
H3767       H  0.60251022  0.02362650  0.62854577     0.19300
H3768       H  0.58435926  0.12174488  0.66002842     0.19300
C3769       C  0.81667667  0.34532305  0.54986469    -0.06500
C3770       C  0.83174380  0.36826923  0.56100395    -0.17600
C3771       C  0.82150300  0.39638264  0.56102918     0.10700
C3772       C  0.79518717  0.40224455  0.54985988    -0.06400
C3773       C  0.78073111  0.37903347  0.53781933    -0.17700
C3774       C  0.79094441  0.35110506  0.53791222     0.10700
S3775       S  0.84345786  0.42361907  0.57467231    -0.32600
S3776       S  0.77148783  0.32312217  0.52111176    -0.32600
H3777       H  0.75010006  0.34022100  0.51026195     0.28700
H3778       H  0.83701525  0.44281132  0.55141202     0.28700
H3779       H  0.85219703  0.36435947  0.56876549     0.19300
H3780       H  0.76083935  0.38245407  0.52843398     0.19300
C3781       C  0.79108306  0.08247524  0.55238575    -0.06500
C3782       C  0.77383967  0.10677652  0.55207218    -0.17600
C3783       C  0.78373927  0.13456809  0.55543886     0.10700
C3784       C  0.81137907  0.13856382  0.56121001    -0.06400
C3785       C  0.82796787  0.11397521  0.56464656    -0.17700
C3786       C  0.81867478  0.08670628  0.55803672     0.10700
S3787       S  0.76135190  0.16467271  0.55009642    -0.32600
S3788       S  0.84367482  0.05935280  0.55220973    -0.32600
H3789       H  0.82891446  0.04503006  0.53015551     0.28700
H3790       H  0.73725830  0.14925595  0.54775189     0.28700
H3791       H  0.75239694  0.10414822  0.54869084     0.19300
H3792       H  0.84948850  0.11644440  0.56828301     0.19300
C3793       C  0.81381461  0.34594062  0.94925026    -0.06500
C3794       C  0.82841952  0.36626983  0.93258978    -0.17600
C3795       C  0.81989435  0.39496871  0.93017864     0.10700
C3796       C  0.79645598  0.40418084  0.94553534    -0.06400
C3797       C  0.78261249  0.38366433  0.96298640    -0.17700
C3798       C  0.79058558  0.35501639  0.96445467     0.10700
S3799       S  0.83957210  0.41922582  0.90794359    -0.32600
S3800       S  0.77164413  0.33032725  0.98710824    -0.32600
H3801       H  0.75330582  0.35013659  0.99916183     0.28700
H3802       H  0.85440405  0.39842389  0.89242212     0.28700
H3803       H  0.84727174  0.35976521  0.92233403     0.19300
H3804       H  0.76467641  0.38984616  0.97509971     0.19300
C3805       C  0.80147416  0.08218396  0.93673820    -0.06500
C3806       C  0.79915513  0.09119977  0.96647782    -0.17600
C3807       C  0.80479991  0.11924876  0.97499820     0.10700
C3808       C  0.81358776  0.13948544  0.95363104    -0.06400
C3809       C  0.81616728  0.13055710  0.92383647    -0.17700
C3810       C  0.81020578  0.10243826  0.91524729     0.10700
S3811       S  0.79912835  0.12955992  0.01328379    -0.32600
S3812       S  0.81293329  0.09402866  0.87616748    -0.32600
H3813       H  0.81958425  0.06530358  0.88080871     0.28700
H3814       H  0.79867807  0.10189586  0.02514436     0.28700
H3815       H  0.79122404  0.07651079  0.98285962     0.19300
H3816       H  0.82338768  0.14529272  0.90716807     0.19300
C3817       C  0.89636093  0.31908287  0.89839007    -0.06500
C3818       C  0.88434529  0.29940956  0.87879872    -0.17600
C3819       C  0.88232896  0.30460823  0.84811918     0.10700
C3820       C  0.89217532  0.33009487  0.83647480    -0.06400
C3821       C  0.89929336  0.35181533  0.85654162    -0.17700
C3822       C  0.90203454  0.34642087  0.88739353     0.10700
S3823       S  0.87030679  0.27670327  0.82438822    -0.32600
S3824       S  0.91550007  0.37404452  0.91046617    -0.32600
H3825       H  0.93001506  0.35601961  0.92998981     0.28700
H3826       H  0.86520223  0.29435072  0.79944677     0.28700
H3827       H  0.87831148  0.27876693  0.88709521     0.19300
H3828       H  0.90660987  0.37178309  0.84773946     0.19300
C3829       C  0.90927865  0.31118210  0.59331952    -0.06500
C3830       C  0.90450548  0.28749356  0.61187308    -0.17600
C3831       C  0.89965121  0.29012872  0.64246971     0.10700
C3832       C  0.89956274  0.31719289  0.65557565    -0.06400
C3833       C  0.90132044  0.34118275  0.63658662    -0.17700
C3834       C  0.90647833  0.33847345  0.60576575     0.10700
S3835       S  0.89443836  0.25801058  0.66381783    -0.32600
S3836       S  0.91128382  0.37047518  0.58423071    -0.32600
H3837       H  0.93023563  0.35884621  0.56430250     0.28700
H3838       H  0.87979371  0.27108787  0.68693715     0.28700
H3839       H  0.90415747  0.26651381  0.60240290     0.19300
H3840       H  0.90113557  0.36220922  0.64603864     0.19300
C3841       C  0.88858770  0.15286599  0.91176597    -0.06500
C3842       C  0.90426900  0.12848552  0.90732067    -0.17600
C3843       C  0.90961063  0.11921704  0.87814623     0.10700
C3844       C  0.89879973  0.13451955  0.85334957    -0.06400
C3845       C  0.87944650  0.15557294  0.85812886    -0.17700
C3846       C  0.87430474  0.16504692  0.88711535     0.10700
S3847       S  0.93305214  0.09015655  0.87243446    -0.32600
S3848       S  0.85236878  0.19553018  0.89190911    -0.32600
H3849       H  0.84476001  0.19908599  0.86180257     0.28700
H3850       H  0.93814220  0.08410245  0.90276998     0.28700
H3851       H  0.91490542  0.11897994  0.92612034     0.19300
H3852       H  0.87109782  0.16700175  0.83909222     0.19300
C3853       C  0.89653729  0.15993801  0.60696023    -0.06500
C3854       C  0.87245245  0.15945131  0.62378191    -0.17600
C3855       C  0.87298364  0.16080578  0.65545495     0.10700
C3856       C  0.89799041  0.16352448  0.67043422    -0.06400
C3857       C  0.92167074  0.16303898  0.65321600    -0.18300
C3858       C  0.92122507  0.16040714  0.62231728     0.10700
S3859       S  0.84181037  0.16278420  0.67602967    -0.32600
S3860       S  0.95255412  0.16155832  0.60198064    -0.32600
H3861       H  0.96841176  0.17253633  0.62518271     0.28700
H3862       H  0.82478227  0.15598267  0.65194757     0.28700
H3863       H  0.85330180  0.16081118  0.61208708     0.19300
H3864       H  0.94107174  0.16385167  0.66406067     0.19300
C3865       C  0.63735186  0.34183628  0.92090225    -0.06500
C3866       C  0.62646925  0.36165680  0.94134480    -0.17600
C3867       C  0.62661809  0.39084423  0.93604968     0.10700
C3868       C  0.63882130  0.40135702  0.91008176    -0.06400
C3869       C  0.64717748  0.38186113  0.88808651    -0.17700
C3870       C  0.64687346  0.35235767  0.89327830     0.10700
S3871       S  0.61381825  0.41377123  0.96494008    -0.32600
S3872       S  0.66179840  0.32992674  0.86535583    -0.32600
H3873       H  0.67679763  0.31344148  0.88596167     0.28700
H3874       H  0.60936615  0.43735424  0.94606572     0.28700
H3875       H  0.61808499  0.35456533  0.96230150     0.19300
H3876       H  0.65723361  0.38969016  0.86825376     0.19300
C3877       C  0.61843348  0.14077302  0.91080964    -0.06500
C3878       C  0.60514248  0.11635232  0.92193840    -0.17600
C3879       C  0.61349905  0.08896228  0.91447005     0.10700
C3880       C  0.63563450  0.08547797  0.89534476    -0.06400
C3881       C  0.64592594  0.10946194  0.88037064    -0.17700
C3882       C  0.63744295  0.13710574  0.88764439     0.10700
S3883       S  0.59777976  0.05963633  0.93341559    -0.32600
S3884       S  0.65218291  0.16689663  0.86824223    -0.32600
H3885       H  0.66746645  0.15113485  0.84761478     0.28700
H3886       H  0.59746010  0.04218161  0.90811147     0.28700
H3887       H  0.58909377  0.11827549  0.93823519     0.19300
H3888       H  0.66247340  0.10654994  0.86485464     0.19300
C3889       C  0.64283738  0.39677030  0.58213794    -0.06500
C3890       C  0.65954333  0.37235515  0.58693341    -0.17600
C3891       C  0.65232235  0.34533680  0.57711489     0.10700
C3892       C  0.62768256  0.34207819  0.56221800    -0.06400
C3893       C  0.60997043  0.36590987  0.56014790    -0.17700
C3894       C  0.61673837  0.39265627  0.57081283     0.10700
S3895       S  0.67667708  0.31693586  0.58118104    -0.32600
S3896       S  0.59166854  0.42049252  0.56779326    -0.32600
H3897       H  0.59701502  0.43127211  0.59642175     0.28700
H3898       H  0.67418982  0.30750973  0.55156921     0.28700
H3899       H  0.67936680  0.37440359  0.59689378     0.19300
H3900       H  0.59097082  0.36427308  0.54852836     0.19300
C3901       C  0.61127835  0.13781574  0.55420277    -0.06500
C3902       C  0.63533986  0.13626163  0.57050216    -0.17600
C3903       C  0.64739339  0.11003709  0.57762662     0.10700
C3904       C  0.63442023  0.08434718  0.56987521    -0.06400
C3905       C  0.60892010  0.08568538  0.55668377    -0.17700
C3906       C  0.59737840  0.11192960  0.54815868     0.10700
S3907       S  0.68048940  0.10990880  0.59484012    -0.32600
S3908       S  0.56604628  0.11102056  0.52736689    -0.32600
H3909       H  0.55936150  0.08270657  0.53386583     0.28700
H3910       H  0.68535800  0.13917653  0.59261179     0.28700
H3911       H  0.64595810  0.15563770  0.57539211     0.19300
H3912       H  0.59924430  0.06607084  0.55052674     0.19300
C3913       C  0.56611456  0.34331472  0.88630480    -0.06500
C3914       C  0.58406848  0.33021408  0.86604497    -0.17600
C3915       C  0.57922581  0.33121649  0.83510457     0.10700
C3916       C  0.55703451  0.34699225  0.82449714    -0.06400
C3917       C  0.54293381  0.36487153  0.84443083    -0.17700
C3918       C  0.54668832  0.36255133  0.87529485     0.10700
S3919       S  0.59837202  0.30895005  0.81012429    -0.32600
S3920       S  0.52337017  0.38095054  0.89938158    -0.32600
H3921       H  0.53929866  0.37832635  0.92535635     0.28700
H3922       H  0.61551368  0.29678182  0.83194983     0.28700
H3923       H  0.59933142  0.31569865  0.87457898     0.19300
H3924       H  0.52603698  0.37754607  0.83626555     0.19300
C3925       C  0.54725192  0.33812881  0.56743731    -0.06500
C3926       C  0.56583820  0.32634985  0.58826134    -0.17600
C3927       C  0.56275833  0.32950351  0.61913547     0.10700
C3928       C  0.53988475  0.34380647  0.62963910    -0.06400
C3929       C  0.52296202  0.35838060  0.60902002    -0.17700
C3930       C  0.52620537  0.35542771  0.57810456     0.10700
S3931       S  0.58589338  0.31194748  0.64465182    -0.32600
S3932       S  0.50109298  0.37126049  0.55377929    -0.32600
H3933       H  0.51650686  0.36960467  0.52748327     0.28700
H3934       H  0.60533329  0.30438251  0.62314680     0.28700
H3935       H  0.58141238  0.31214507  0.58075958     0.19300
H3936       H  0.50541683  0.36985742  0.61709873     0.19300
C3937       C  0.55027441  0.16821848  0.88654956    -0.06500
C3938       C  0.56390932  0.17952550  0.86146550    -0.17600
C3939       C  0.56573818  0.16487356  0.83438785     0.10700
C3940       C  0.55309149  0.13845875  0.83166388    -0.06400
C3941       C  0.54306164  0.12547529  0.85804537    -0.17700
C3942       C  0.54092475  0.14019358  0.88507010     0.10700
S3943       S  0.58325901  0.18157094  0.80393660    -0.32600
S3944       S  0.52331366  0.12322999  0.91543440    -0.32600
H3945       H  0.50833541  0.14757617  0.92331066     0.28700
H3946       H  0.59491103  0.15602599  0.79383734     0.28700
H3947       H  0.57296566  0.20031772  0.86275771     0.19300
H3948       H  0.53379733  0.10481093  0.85687640     0.19300
C3949       C  0.53845898  0.15977423  0.63816969    -0.06500
C3950       C  0.52628690  0.14240453  0.61639298    -0.17600
C3951       C  0.52628574  0.14956296  0.58570105     0.10700
C3952       C  0.53932112  0.17454760  0.57624323    -0.06400
C3953       C  0.55354717  0.19027843  0.59783863    -0.17700
C3954       C  0.55316491  0.18335189  0.62833672     0.10700
S3955       S  0.50685872  0.12768663  0.56091307    -0.32600
S3956       S  0.56931204  0.20721308  0.65385274    -0.32600
H3957       H  0.57490991  0.18650006  0.67583234     0.28700
H3958       H  0.49994867  0.14928019  0.54039115     0.28700
H3959       H  0.51428313  0.12460196  0.62364294     0.19300
H3960       H  0.56400680  0.20931663  0.59101431     0.19300
O3961       O  0.63518793  0.69042327  0.03147332    -0.75700
O3962       O  0.60879580  0.66338876  0.00170521    -0.54600
C3963       C  0.62623495  0.66589625  0.02240036     0.78100
O3964       O  0.55208550  0.80014007  0.04126296    -0.60300
O3965       O  0.57416629  0.83206059  0.01185278    -0.53300
C3966       C  0.56284159  0.82447884  0.03648786     0.70100
O3967       O  0.55066988  0.71099171  0.04571939    -0.74800
O3968       O  0.56259328  0.67307080  0.01742390    -0.55400
C3969       C  0.55625660  0.68462502  0.04253103     0.76100
O3970       O  0.64373207  0.79263668  0.03365253    -0.60000
O3971       O  0.62117845  0.82636697  0.00601209    -0.53100
C3972       C  0.63754078  0.81898786  0.02662475     0.72700
Zr3973     Zr  0.62978869  0.74279911  0.01799422     2.54700
O3974       O  0.63210547  0.73987436  0.07231702    -0.80500
O3975       O  0.67871001  0.73830597  0.01388694    -0.94000
Zr3976     Zr  0.54845055  0.75411152  0.01695105     2.64700
O3977       O  0.52340373  0.75316167  0.06383308    -0.98900
O3978       O  0.50164117  0.76143107  0.00207120    -0.81000
O3979       O  0.58669525  0.72727670  0.01124208    -0.84300
O3980       O  0.59208362  0.77388019  0.01860764    -2.19000
O3981       O  0.65026276  0.78896742  0.42580032    -0.67700
O3982       O  0.63995207  0.80667937  0.46929822    -0.52300
C3983       C  0.64785484  0.81070441  0.44285274     0.71000
O3984       O  0.56132994  0.71274522  0.39636683    -0.60600
O3985       O  0.56089250  0.67554224  0.42863606    -0.52600
C3986       C  0.56204672  0.68596639  0.40182088     0.72800
O3987       O  0.56175302  0.80307166  0.40227866    -0.72000
O3988       O  0.58570597  0.83226211  0.43286880    -0.50700
C3989       C  0.57486296  0.82595201  0.40760887     0.74200
O3990       O  0.64033171  0.68929123  0.43202166    -0.67400
O3991       O  0.60610436  0.66385416  0.45316034    -0.54600
C3992       C  0.62811970  0.66576161  0.43850775     0.72600
Zr3993     Zr  0.63371372  0.74111361  0.44185326     2.77500
O3994       O  0.64297123  0.73639018  0.38864552    -0.98100
O3995       O  0.68125730  0.73670556  0.45533543    -0.78900
Zr3996     Zr  0.55396811  0.75616385  0.42401267     2.70100
O3997       O  0.54275703  0.76244231  0.37125534    -0.80200
O3998       O  0.50477333  0.75514203  0.42300664    -0.99300
Zr3999     Zr  0.57630571  0.69730587  0.47564908     2.21500
Zr4000     Zr  0.59369704  0.80142206  0.97381074     2.11100
O4001       O  0.59775716  0.77411579  0.43303306    -2.47900
O4002       O  0.58981877  0.72341547  0.43314352    -0.80000
O4003       O  0.62925051  0.76919240  0.48595346    -0.72200
O4004       O  0.54257359  0.72463374  0.97427157    -2.33100
O4005       O  0.62083961  0.71502713  0.48539179    -2.29300
O4006       O  0.54931282  0.78258458  0.97345399    -0.73900
H4007       H  0.59526286  0.78403502  0.03677912     0.78100
H4008       H  0.52653181  0.71315520  0.97507612     0.79200
H4009       H  0.60387851  0.78415794  0.41559500     0.81400
H4010       H  0.63365454  0.69984550  0.48921226     0.79000
H4011       H  0.49809856  0.78185355  0.00552811     0.42000
H4012       H  0.49917622  0.77453771  0.42873940     0.41000
H4013       H  0.56021045  0.76054757  0.36062210     0.40700
H4014       H  0.62983575  0.72218909  0.38162161     0.38600
H4015       H  0.69101143  0.73997084  0.43634211     0.41700
H4016       H  0.68188884  0.71843794  0.00766301     0.36500
H4017       H  0.64679293  0.72599294  0.07660739     0.42600
H4018       H  0.53689939  0.75749103  0.07948808     0.39100
H4019       H  0.63653808  0.75448150  0.37959252     0.44000
H4020       H  0.68526218  0.73884564  0.03480487     0.42700
H4021       H  0.51141763  0.77011774  0.06311308     0.42800
H4022       H  0.49963843  0.75367052  0.40168833     0.43200
O4023       O  0.91223240  0.70775019  0.07779864    -0.75700
O4024       O  0.89439177  0.66908776  0.05565915    -0.54600
C4025       C  0.90444132  0.68210874  0.07874354     0.78100
O4026       O  0.83621880  0.79770525  0.07339524    -0.60300
O4027       O  0.85564849  0.82550680  0.03757539    -0.53300
C4028       C  0.84336696  0.82217853  0.06239960     0.70100
O4029       O  0.83232028  0.69707021  0.07947904    -0.74800
O4030       O  0.83691411  0.65955837  0.53167772    -0.55400
C4031       C  0.83672781  0.67092478  0.07127142     0.76100
O4032       O  0.93661478  0.78759477  0.04672620    -0.60000
O4033       O  0.90456246  0.82031935  0.03981434    -0.53100
C4034       C  0.92188642  0.80768959  0.05702043     0.72700
Zr4035     Zr  0.92123365  0.73954129  0.03764650     2.54700
O4036       O  0.95602636  0.74836622  0.07504353    -0.80500
O4037       O  0.96014448  0.70956568  0.02463447    -0.94000
Zr4038     Zr  0.83930783  0.74636072  0.05833137     2.64700
O4039       O  0.84529817  0.74924109  0.11225140    -0.98900
O4040       O  0.79031409  0.74971289  0.06201574    -0.81000
O4041       O  0.87885627  0.71964257  0.04923660    -0.84300
O4042       O  0.88125381  0.76699251  0.04617553    -2.19000
O4043       O  0.93344560  0.77547048  0.44470843    -0.67700
O4044       O  0.90502903  0.81102645  0.45773505    -0.52300
C4045       C  0.92032984  0.79832933  0.43853849     0.71000
O4046       O  0.83426833  0.68685891  0.43286995    -0.60600
O4047       O  0.83387661  0.66198197  0.47550034    -0.52600
C4048       C  0.83325791  0.66273779  0.44735821     0.72800
O4049       O  0.83177463  0.78959866  0.43492336    -0.72000
O4050       O  0.85739324  0.81945849  0.46314098    -0.50700
C4051       C  0.84064595  0.81465776  0.44215905     0.74200
O4052       O  0.91070193  0.68990980  0.43658045    -0.67400
O4053       O  0.89070752  0.65564267  0.46417688    -0.54600
C4054       C  0.90057919  0.66528407  0.43945629     0.72600
Zr4055     Zr  0.91832515  0.73099163  0.46632682     2.77500
O4056       O  0.94904681  0.72777855  0.42372522    -0.98100
O4057       O  0.96106732  0.71496152  0.48828518    -0.78900
Zr4058     Zr  0.83719870  0.73812520  0.45098314     2.70100
O4059       O  0.82956382  0.74192382  0.39731842    -0.80200
O4060       O  0.78824477  0.73785753  0.45655624    -0.99300
Zr4061     Zr  0.86822243  0.68415550  0.50323629     2.21500
Zr4062     Zr  0.87847926  0.78998837  0.49907549     2.11100
O4063       O  0.87974465  0.75999403  0.45629525    -2.47900
O4064       O  0.87548630  0.71363138  0.46435995    -0.80000
O4065       O  0.91739879  0.76101331  0.50875479    -0.72200
O4066       O  0.82842252  0.71323506  0.49570920    -2.33100
O4067       O  0.91170832  0.70407188  0.51059272    -2.29300
O4068       O  0.83476257  0.76842594  0.49310777    -0.73900
H4069       H  0.88309852  0.77844446  0.06353768     0.78100
H4070       H  0.81187176  0.70272177  0.49390525     0.79200
H4071       H  0.88092301  0.76963582  0.43739109     0.81400
H4072       H  0.92528573  0.68928314  0.51238195     0.79000
H4073       H  0.78483569  0.73123696  0.07061326     0.42000
H4074       H  0.78158975  0.75224137  0.44198744     0.41000
H4075       H  0.81103386  0.73472197  0.39434677     0.40700
H4076       H  0.93773461  0.72437981  0.40586373     0.38600
H4077       H  0.96479824  0.69624507  0.47918761     0.41700
H4078       H  0.97542617  0.71536007  0.03740585     0.36500
H4079       H  0.95714420  0.73115523  0.08781624     0.42600
H4080       H  0.82945092  0.73946376  0.12080410     0.39100
H4081       H  0.95948053  0.70992395  0.42659009     0.44000
H4082       H  0.96544718  0.71526870  0.00417558     0.42700
H4083       H  0.86077453  0.73638705  0.11663407     0.42800
H4084       H  0.78262233  0.71948371  0.44809848     0.43200
O4085       O  0.67625868  0.54594304  0.14307339    -0.75700
O4086       O  0.65436745  0.51787617  0.10959920    -0.54600
C4087       C  0.65451701  0.53724800  0.12920623     0.78100
O4088       O  0.78794204  0.56042887  0.06573779    -0.60300
O4089       O  0.81375585  0.53731288  0.10052073    -0.53300
C4090       C  0.80733513  0.55946582  0.08475453     0.70100
O4091       O  0.70538154  0.56210794  0.05258199    -0.74800
O4092       O  0.66893829  0.53435157  0.05970268    -0.55400
C4093       C  0.67990318  0.55875739  0.05413158     0.76100
O4094       O  0.77367362  0.55116812  0.16252995    -0.60000
O4095       O  0.79596987  0.51022773  0.16186539    -0.53100
C4096       C  0.79618656  0.53665386  0.16492459     0.72700
Zr4097     Zr  0.72677923  0.53461650  0.14572863     2.54700
O4098       O  0.72072553  0.58551018  0.15246665    -0.80500
O4099       O  0.71927542  0.52728822  0.19898290    -0.94000
Zr4100     Zr  0.74658801  0.53511553  0.05678595     2.64700
O4101       O  0.75236084  0.58026904  0.03078906    -0.98900
O4102       O  0.75577839  0.52490034  0.00462929    -0.81000
O4103       O  0.71291939  0.53412693  0.09466475    -0.84300
O4104       O  0.75961998  0.53529011  0.10764390    -2.19000
O4105       O  0.77434313  0.94113971  0.17332812    -0.67700
O4106       O  0.80777302  0.96605954  0.15028252    -0.52300
C4107       C  0.79966302  0.94798916  0.16945291     0.71000
O4108       O  0.70821414  0.92586957  0.05628709    -0.60600
O4109       O  0.66970546  0.95034361  0.06584692    -0.52600
C4110       C  0.68266522  0.92730818  0.05864617     0.72800
O4111       O  0.78992976  0.93328255  0.06594715    -0.72000
O4112       O  0.81618817  0.95704351  0.09895280    -0.50700
C4113       C  0.81062872  0.93515530  0.08290363     0.74200
O4114       O  0.67880999  0.94467894  0.15731335    -0.67400
O4115       O  0.65426595  0.96790046  0.12108614    -0.54600
C4116       C  0.65606881  0.95243192  0.14464542     0.72600
Zr4117     Zr  0.72875978  0.95352485  0.14960823     2.77500
O4118       O  0.72915200  0.90208488  0.14478657    -0.98100
O4119       O  0.72133033  0.95161456  0.20337564    -0.78900
Zr4120     Zr  0.74616400  0.95536286  0.06109342     2.70100
O4121       O  0.75388096  0.90942405  0.03762137    -0.80200
O4122       O  0.75054997  0.96723400  0.00851558    -0.99300
Zr4123     Zr  0.68618522  0.99356206  0.09154531     2.21500
Zr4124     Zr  0.78784425  0.49405198  0.11312251     2.11100
O4125       O  0.76130914  0.95398973  0.11120699    -2.47900
O4126       O  0.71670534  0.95856169  0.10030566    -0.80000
O4127       O  0.75391535  0.49292184  0.15169643    -0.72200
O4128       O  0.72084839  0.49396906  0.04668555    -2.33100
O4129       O  0.70197523  0.99514342  0.14263306    -2.29300
O4130       O  0.77611238  0.49522317  0.06170379    -0.73900
H4131       H  0.76711418  0.55344358  0.11192661     0.78100
H4132       H  0.71257880  0.49430227  0.02717224     0.79200
H4133       H  0.77140604  0.93694209  0.11565320     0.81400
H4134       H  0.68743570  0.99564173  0.15694117     0.79000
H4135       H  0.77571269  0.52549114  0.00302237     0.42000
H4136       H  0.76998025  0.96437854  0.00417592     0.41000
H4137       H  0.75396624  0.89530993  0.05415132     0.40700
H4138       H  0.71577051  0.89538093  0.15958173     0.38600
H4139       H  0.71245911  0.96995367  0.20811026     0.41700
H4140       H  0.70268067  0.53839685  0.20335861     0.36500
H4141       H  0.73911158  0.59348478  0.15116675     0.42600
H4142       H  0.74752178  0.59513227  0.04537140     0.39100
H4143       H  0.72069421  0.89853440  0.12510750     0.44000
H4144       H  0.73395618  0.53787751  0.20882769     0.42700
H4145       H  0.73825386  0.58155096  0.01512285     0.42800
H4146       H  0.74152444  0.95138439  0.99837808     0.43200
O4147       O  0.69534157  0.56006007  0.41764692    -0.75700
O4148       O  0.66088078  0.53066803  0.40601211    -0.54600
C4149       C  0.67027803  0.55487910  0.41440613     0.78100
O4150       O  0.78482050  0.52747814  0.31036667    -0.60300
O4151       O  0.81201110  0.50382795  0.34328371    -0.53300
C4152       C  0.80855621  0.51905773  0.32009785     0.70100
O4153       O  0.68817254  0.52853284  0.30961461    -0.74800
O4154       O  0.65901111  0.51093229  0.34447904    -0.55400
C4155       C  0.66400026  0.52314300  0.31950558     0.76100
O4156       O  0.78010380  0.56010784  0.41302860    -0.60000
O4157       O  0.81282359  0.52825540  0.39995250    -0.53100
C4158       C  0.80460744  0.55362653  0.40719802     0.72700
Zr4159     Zr  0.73787748  0.53606959  0.41598790     2.54700
O4160       O  0.73639752  0.58735800  0.42300341    -0.80500
O4161       O  0.74389127  0.53539328  0.46993146    -0.94000
Zr4162     Zr  0.73605812  0.52039076  0.32695590     2.64700
O4163       O  0.73551565  0.57131817  0.31743579    -0.98900
O4164       O  0.73797052  0.50958522  0.27385397    -0.81000
O4165       O  0.71149659  0.52981958  0.37201564    -0.84300
O4166       O  0.76153562  0.52767020  0.37081123    -2.19000
O4167       O  0.78072556  0.93202664  0.43968758    -0.67700
O4168       O  0.81115917  0.94849744  0.40634011    -0.52300
C4169       C  0.80257249  0.92929060  0.42469069     0.71000
O4170       O  0.68368898  0.93007221  0.33295287    -0.60600
O4171       O  0.65529864  0.95905088  0.35921838    -0.52600
C4172       C  0.65957498  0.93906101  0.34079183     0.72800
O4173       O  0.78189769  0.92979000  0.32794919    -0.72000
O4174       O  0.81222397  0.95726144  0.35305319    -0.50700
C4175       C  0.80646788  0.93790076  0.33452416     0.74200
O4176       O  0.69784617  0.92451218  0.42863390    -0.67400
O4177       O  0.66210535  0.95044486  0.41161611    -0.54600
C4178       C  0.67302299  0.92714789  0.42132181     0.72600
Zr4179     Zr  0.73687422  0.95401269  0.43256106     2.77500
O4180       O  0.74122449  0.91225054  0.46537942    -0.98100
O4181       O  0.73235985  0.97247146  0.48280259    -0.78900
Zr4182     Zr  0.73321438  0.94132639  0.34321684     2.70100
O4183       O  0.73365022  0.89030960  0.35251761    -0.80200
O4184       O  0.72981657  0.93356853  0.28953984    -0.99300
Zr4185     Zr  0.68441003  0.98965157  0.38507470     2.21500
Zr4186     Zr  0.78598185  0.98813494  0.38181831     2.11100
O4187       O  0.75960910  0.94634398  0.38675365    -2.47900
O4188       O  0.71445799  0.95351051  0.38805981    -0.80000
O4189       O  0.76428326  0.99485844  0.42825052    -0.72200
O4190       O  0.70697597  0.98321560  0.33784989    -2.33100
O4191       O  0.70892189  0.99558752  0.43025215    -2.29300
O4192       O  0.76007574  0.98228373  0.33646995    -0.73900
H4193       H  0.77291291  0.54317392  0.36497900     0.78100
H4194       H  0.69454642  0.98081206  0.32143767     0.79200
H4195       H  0.76938751  0.92863521  0.38628618     0.81400
H4196       H  0.69717218  0.99813686  0.44722961     0.79000
H4197       H  0.72227959  0.49719918  0.27025963     0.42000
H4198       H  0.74779210  0.93848852  0.28148492     0.41000
H4199       H  0.74453158  0.88755064  0.37092916     0.40700
H4200       H  0.72294438  0.90543866  0.47032396     0.38600
H4201       H  0.75095959  0.97193035  0.49101703     0.41700
H4202       H  0.73469287  0.55286328  0.47683622     0.36500
H4203       H  0.74398011  0.59077899  0.44313958     0.42600
H4204       H  0.72735117  0.57341921  0.29729888     0.39100
H4205       H  0.74846063  0.91916027  0.48461862     0.44000
H4206       H  0.76336533  0.53907540  0.47297048     0.42700
H4207       H  0.72161508  0.57889170  0.33120065     0.42800
H4208       H  0.71766585  0.94890540  0.28212421     0.43200
O4209       O  0.52419777  0.57371163  0.15442947    -0.75700
O4210       O  0.55788169  0.58815948  0.18570641    -0.54600
C4211       C  0.54958380  0.57736978  0.16140766     0.78100
O4212       O  0.93528563  0.68118442  0.21733809    -0.60300
O4213       O  0.90596111  0.64641570  0.22071195    -0.53300
C4214       C  0.91601264  0.66725991  0.20598227     0.70100
O4215       O  0.51757414  0.66016167  0.16441423    -0.74800
O4216       O  0.55537902  0.63975905  0.18424563    -0.55400
C4217       C  0.54227694  0.65186124  0.16250978     0.76100
O4218       O  0.92568434  0.57553102  0.17956272    -0.60000
O4219       O  0.90194136  0.59318745  0.21900026    -0.53100
C4220       C  0.90308769  0.58121476  0.19371847     0.72700
Zr4221     Zr  0.97648150  0.58250984  0.18646759     2.54700
O4222       O  0.96726224  0.59959189  0.13596773    -0.80500
O4223       O  0.97716158  0.53339690  0.16987413    -0.94000
Zr4224     Zr  0.98184101  0.66515377  0.21667719     2.64700
O4225       O  0.97296203  0.70534768  0.18298826    -0.98900
O4226       O  0.00401953  0.70641151  0.23779262    -0.81000
O4227       O  0.50470486  0.62239412  0.18814753    -0.84300
O4228       O  0.95568112  0.62389124  0.20570382    -2.19000
O4229       O  0.93810504  0.53888327  0.27748583    -0.67700
O4230       O  0.90839701  0.57576986  0.27046673    -0.52300
C4231       C  0.91386605  0.55006874  0.27699701     0.71000
O4232       O  0.53555608  0.61237489  0.29570354    -0.60600
O4233       O  0.56571950  0.63024252  0.26555166    -0.52600
C4234       C  0.55754120  0.62559742  0.29237543     0.72800
O4235       O  0.95190593  0.63087803  0.32945631    -0.72000
O4236       O  0.91472580  0.62677627  0.29978823    -0.50700
C4237       C  0.92637193  0.62872283  0.32555385     0.74200
O4238       O  0.53785219  0.54771338  0.27408093    -0.67400
O4239       O  0.56448990  0.57301314  0.24226418    -0.54600
C4240       C  0.56137484  0.55506979  0.26340093     0.72600
Zr4241     Zr  0.98625038  0.55452553  0.26906713     2.77500
O4242       O  0.98491658  0.53204572  0.31822803    -0.98100
O4243       O  0.98922227  0.50795056  0.24647231    -0.78900
Zr4244     Zr  0.99160434  0.63458937  0.29859601     2.70100
O4245       O  0.00185180  0.63988583  0.35154728    -0.80200
O4246       O  0.00056621  0.68458962  0.30725927    -0.99300
Zr4247     Zr  0.53672148  0.61087892  0.22553237     2.21500
Zr4248     Zr  0.93376596  0.61321785  0.25122727     2.11100
O4249       O  0.96368217  0.59497683  0.28843462    -2.47900
O4250       O  0.51575791  0.59673443  0.27089456    -0.80000
O4251       O  0.95523633  0.57091465  0.23234177    -0.72200
O4252       O  0.51641033  0.65346360  0.24347038    -2.33100
O4253       O  0.51006436  0.56915225  0.21681208    -2.29300
O4254       O  0.96013721  0.65338120  0.26284873    -0.73900
H4255       H  0.94235063  0.62642916  0.19045711     0.78100
H4256       H  0.53013445  0.66739144  0.24721695     0.79200
H4257       H  0.95430806  0.58748276  0.30557852     0.81400
H4258       H  0.52127591  0.55342144  0.21048706     0.79000
H4259       H  0.01957096  0.70992625  0.22442654     0.42000
H4260       H  0.98665880  0.69059935  0.32184161     0.41000
H4261       H  0.00185070  0.62029025  0.35970237     0.40700
H4262       H  0.98585673  0.51144878  0.31411744     0.38600
H4263       H  0.97013471  0.50332492  0.24224734     0.41700
H4264       H  0.48920816  0.52620217  0.15610961     0.36500
H4265       H  0.48271016  0.60697051  0.12145488     0.42600
H4266       H  0.96589313  0.72074900  0.19579141     0.39100
H4267       H  0.00250516  0.53640751  0.32756498     0.44000
H4268       H  0.98449563  0.52241762  0.18705914     0.42700
H4269       H  0.99088406  0.71196933  0.17629906     0.42800
H4270       H  0.01777808  0.68481353  0.31858228     0.43200
O4271       O  0.52500926  0.83678608  0.15171778    -0.75700
O4272       O  0.56015824  0.85295441  0.17933449    -0.54600
C4273       C  0.54882227  0.84664938  0.15422182     0.78100
O4274       O  0.92736257  0.91491129  0.19477945    -0.60300
O4275       O  0.90309435  0.88292015  0.22216626    -0.53300
C4276       C  0.90469587  0.90431165  0.20457845     0.70100
O4277       O  0.52430233  0.92600984  0.17513141    -0.74800
O4278       O  0.55800451  0.90387373  0.20166711    -0.55400
C4279       C  0.54961244  0.92236594  0.18288961     0.76100
O4280       O  0.94191760  0.79847454  0.19425947    -0.60000
O4281       O  0.91120181  0.83171185  0.20455983    -0.53100
C4282       C  0.92140218  0.81336205  0.18651892     0.72700
Zr4283     Zr  0.98688561  0.81770968  0.19839163     2.54700
O4284       O  0.97736613  0.79873423  0.14900823    -0.80500
O4285       O  0.01149650  0.77275719  0.20019124    -0.94000
Zr4286     Zr  0.97771454  0.90492059  0.19912756     2.64700
O4287       O  0.97173078  0.90135162  0.14525162    -0.98900
O4288       O  0.97474191  0.95639740  0.19707025    -0.81000
O4289       O  0.50455627  0.86592968  0.19230716    -0.84300
O4290       O  0.95849801  0.85885489  0.20076622    -2.19000
O4291       O  0.95419938  0.80858826  0.31344575    -0.67700
O4292       O  0.91677493  0.82720430  0.29043624    -0.52300
C4293       C  0.92902748  0.81522139  0.31290531     0.71000
O4294       O  0.53435839  0.91286235  0.29174234    -0.60600
O4295       O  0.56343116  0.89417253  0.25773538    -0.52600
C4296       C  0.55865395  0.90890681  0.28073325     0.72800
O4297       O  0.93660729  0.91135892  0.30213768    -0.72000
O4298       O  0.90794640  0.88061164  0.27914756    -0.50700
C4299       C  0.91263025  0.90098858  0.29687455     0.74200
O4300       O  0.53594195  0.82509279  0.29641825    -0.67400
O4301       O  0.56699200  0.84405872  0.26510874    -0.54600
C4302       C  0.55903235  0.83611682  0.29125658     0.72600
Zr4303     Zr  0.99419982  0.81682905  0.28374793     2.77500
O4304       O  0.00568844  0.79105567  0.32967973    -0.98100
O4305       O  0.00283202  0.76829590  0.26782924    -0.78900
Zr4306     Zr  0.98555737  0.90239284  0.28701311     2.70100
O4307       O  0.98743952  0.90275802  0.34140881    -0.80200
O4308       O  0.98228908  0.95391717  0.28373227    -0.99300
Zr4309     Zr  0.53750207  0.86553051  0.22661173     2.21500
Zr4310     Zr  0.93531384  0.85352866  0.24709429     2.11100
O4311       O  0.96512866  0.85726438  0.28897753    -2.47900
O4312       O  0.51382630  0.85893969  0.27169490    -0.80000
O4313       O  0.96281202  0.81178107  0.24408216    -0.72200
O4314       O  0.50852532  0.90634538  0.23328846    -2.33100
O4315       O  0.52124713  0.81827387  0.22399895    -2.29300
O4316       O  0.95529242  0.90007736  0.24588741    -0.73900
H4317       H  0.94669649  0.85926462  0.18371864     0.78100
H4318       H  0.51842924  0.92386724  0.23414724     0.79200
H4319       H  0.95604434  0.85817582  0.30794051     0.81400
H4320       H  0.53584616  0.80478865  0.22126450     0.79000
H4321       H  0.46500886  0.96099761  0.21364687     0.42000
H4322       H  0.98068536  0.96012963  0.30475052     0.41000
H4323       H  0.98616843  0.88256148  0.34743022     0.40700
H4324       H  0.99856802  0.80287622  0.34615011     0.38600
H4325       H  0.98542990  0.75853207  0.27089092     0.41700
H4326       H  0.02026652  0.77126700  0.18038735     0.36500
H4327       H  0.49307554  0.79903311  0.12444862     0.42600
H4328       H  0.95229833  0.89734209  0.14251337     0.39100
H4329       H  0.99416947  0.77399964  0.32971984     0.44000
H4330       H  0.99713347  0.75836831  0.19987040     0.42700
H4331       H  0.97385660  0.92099160  0.13769001     0.42800
H4332       H  0.00050786  0.96010673  0.27754914     0.43200
C4333       C  0.83141441  0.92580043  0.32080353    -0.06500
C4334       C  0.84951432  0.94571122  0.30842732    -0.17600
C4335       C  0.87706755  0.93946757  0.30408893     0.10700
C4336       C  0.88728224  0.91214537  0.31079201    -0.06400
C4337       C  0.86913914  0.89203548  0.32273850    -0.17700
C4338       C  0.84177786  0.89861068  0.32840464     0.10700
S4339       S  0.89810704  0.96716548  0.28954052    -0.32600
S4340       S  0.82158163  0.87112986  0.34526100    -0.32600
H4341       H  0.80168982  0.88845796  0.35818691     0.28700
H4342       H  0.91977082  0.96120760  0.30904189     0.28700
H4343       H  0.84237091  0.96711490  0.30369750     0.19300
H4344       H  0.87631995  0.87060463  0.32717347     0.19300
C4345       C  0.63421115  0.92825598  0.32654677    -0.06500
C4346       C  0.63373731  0.92479704  0.29563066    -0.17600
C4347       C  0.60940111  0.92072932  0.27998080     0.10700
C4348       C  0.58411230  0.91932074  0.29558069    -0.06400
C4349       C  0.58460865  0.92327952  0.32651529    -0.17700
C4350       C  0.60906646  0.92740928  0.34211106     0.10700
S4351       S  0.61195156  0.91793725  0.23980189    -0.32600
S4352       S  0.60756818  0.93074806  0.38223726    -0.32600
H4353       H  0.58009115  0.92436366  0.38580708     0.28700
H4354       H  0.63659557  0.93226751  0.23662117     0.28700
H4355       H  0.65255293  0.92632150  0.28343770     0.19300
H4356       H  0.56579424  0.92215857  0.33870031     0.19300
C4357       C  0.88922538  0.53411372  0.28479844    -0.06500
C4358       C  0.86639945  0.53768133  0.26581147    -0.17600
C4359       C  0.83972790  0.53419869  0.27620937     0.10700
C4360       C  0.83536102  0.52647462  0.30627691    -0.06400
C4361       C  0.85859558  0.52248805  0.32478167    -0.17700
C4362       C  0.88492141  0.52540570  0.31434772     0.10700
S4363       S  0.81238987  0.54086665  0.25055168    -0.32600
S4364       S  0.91211719  0.51951064  0.34059087    -0.32600
H4365       H  0.92936429  0.50631505  0.31992919     0.28700
H4366       H  0.79982394  0.56089905  0.26924141     0.28700
H4367       H  0.86933149  0.54530806  0.24315328     0.19300
H4368       H  0.85656205  0.51691068  0.34819474     0.19300
C4369       C  0.58770833  0.54483557  0.27653925    -0.06500
C4370       C  0.61007704  0.56335097  0.27457798    -0.17600
C4371       C  0.63542636  0.55658001  0.28689449     0.10700
C4372       C  0.63924231  0.53041394  0.30174682    -0.06400
C4373       C  0.61722741  0.51142823  0.30290847    -0.17700
C4374       C  0.59182913  0.51822011  0.29036026     0.10700
S4375       S  0.65908694  0.02974246  0.25187263    -0.32600
S4376       S  0.56573585  0.49202095  0.29218242    -0.32600
H4377       H  0.55672695  0.49681865  0.26271607     0.28700
H4378       H  0.66990978  0.00593414  0.26704690     0.28700
H4379       H  0.60767671  0.58405940  0.26416925     0.19300
H4380       H  0.61976984  0.49102688  0.31394896     0.19300
C4381       C  0.82285934  0.93518016  0.18658150    -0.06500
C4382       C  0.84333754  0.95406985  0.19562416    -0.17600
C4383       C  0.87036256  0.94531076  0.20001174     0.10700
C4384       C  0.87761673  0.91651604  0.19613782    -0.06400
C4385       C  0.85682516  0.89731947  0.18892559    -0.17700
C4386       C  0.82985637  0.90622352  0.18429559     0.10700
S4387       S  0.89445377  0.97228533  0.20943332    -0.32600
S4388       S  0.80559299  0.87989442  0.17395955    -0.32600
H4389       H  0.78462748  0.89163857  0.19118538     0.28700
H4390       H  0.91134831  0.95493972  0.22716610     0.28700
H4391       H  0.83851039  0.97647840  0.19739018     0.19300
H4392       H  0.86168642  0.87494993  0.18677561     0.19300
C4393       C  0.62928793  0.94390267  0.15695319    -0.06500
C4394       C  0.61538199  0.96203725  0.17677773    -0.17600
C4395       C  0.58761691  0.95828488  0.18333083     0.10700
C4396       C  0.57260058  0.93717076  0.16828072    -0.06400
C4397       C  0.58638527  0.92066439  0.14717108    -0.17700
C4398       C  0.61431566  0.92271796  0.14263253     0.10700
S4399       S  0.57284376  0.98002550  0.21217474    -0.32600
S4400       S  0.63014420  0.89614656  0.11980585    -0.32600
H4401       H  0.65581030  0.89755974  0.13320650     0.28700
H4402       H  0.54578161  0.97485376  0.20448687     0.28700
H4403       H  0.62620140  0.97918376  0.18728291     0.19300
H4404       H  0.57581091  0.90370515  0.13645856     0.19300
C4405       C  0.87580194  0.57285510  0.18202784    -0.06500
C4406       C  0.87367994  0.54804191  0.16569139    -0.17600
C4407       C  0.84845664  0.53601322  0.15934773     0.10700
C4408       C  0.82376270  0.54964027  0.16886204    -0.06400
C4409       C  0.82591304  0.57553730  0.18335211    -0.17700
C4410       C  0.85123499  0.58693361  0.19069544     0.10700
S4411       S  0.84959059  0.50369675  0.13799732    -0.32600
S4412       S  0.85089668  0.61873337  0.21286002    -0.32600
H4413       H  0.82362928  0.62636443  0.20835545     0.28700
H4414       H  0.87707416  0.49676673  0.14202523     0.28700
H4415       H  0.89209794  0.53734449  0.15889030     0.19300
H4416       H  0.80755926  0.58604921  0.19063799     0.19300
C4417       C  0.62687366  0.54939209  0.13457115    -0.06500
C4418       C  0.60432627  0.53134712  0.13060778    -0.17600
C4419       C  0.57755512  0.54111180  0.13364716     0.10700
C4420       C  0.57270133  0.56934090  0.14194058    -0.06400
C4421       C  0.59490781  0.58801516  0.14235728    -0.17700
C4422       C  0.62161854  0.57847907  0.13890954     0.10700
S4423       S  0.55049266  0.51661320  0.12751326    -0.32600
S4424       S  0.64777806  0.60460774  0.14032341    -0.32600
H4425       H  0.66319489  0.59178210  0.11790626     0.28700
H4426       H  0.53296223  0.53707309  0.11478915     0.28700
H4427       H  0.60748186  0.50925926  0.12501505     0.19300
H4428       H  0.59159867  0.61006431  0.14803819     0.19300
C4429       C  0.83819468  0.84963017  0.07798464    -0.06500
C4430       C  0.85652133  0.87192686  0.07213935    -0.17600
C4431       C  0.84983951  0.90051148  0.07685250     0.10700
C4432       C  0.82419379  0.90736927  0.08797815    -0.06400
C4433       C  0.80709724  0.88504320  0.09709428    -0.17700
C4434       C  0.81371539  0.85645200  0.09226083     0.10700
S4435       S  0.87331100  0.92703411  0.06444510    -0.32600
S4436       S  0.78840647  0.83042786  0.10049874    -0.32600
H4437       H  0.80654002  0.81235429  0.11591260     0.28700
H4438       H  0.86433811  0.94840025  0.08383105     0.28700
H4439       H  0.87539684  0.86728787  0.06103256     0.19300
H4440       H  0.78715938  0.89000648  0.10567723     0.19300
C4441       C  0.81749476  0.58789380  0.09279676    -0.06500
C4442       C  0.79759082  0.60929112  0.09724696    -0.17600
C4443       C  0.80387704  0.63823634  0.09562912     0.10700
C4444       C  0.83066106  0.64594978  0.09036969    -0.06400
C4445       C  0.85101096  0.62458175  0.09205370    -0.17700
C4446       C  0.84476315  0.59566427  0.09268117     0.10700
S4447       S  0.77734075  0.66480264  0.09509200    -0.32600
S4448       S  0.87229099  0.57047224  0.08986371    -0.32600
H4449       H  0.85826409  0.54956282  0.07417709     0.28700
H4450       H  0.75563152  0.64593036  0.09703910     0.28700
H4451       H  0.77659010  0.60331294  0.09902878     0.19300
H4452       H  0.87183446  0.63009468  0.08825595     0.19300
C4453       C  0.83013251  0.84122943  0.42808209    -0.06500
C4454       C  0.84874900  0.86280549  0.42076564    -0.17600
C4455       C  0.84108045  0.89173745  0.41933057     0.10700
C4456       C  0.81400218  0.89958648  0.42508654    -0.06400
C4457       C  0.79518960  0.87749424  0.42967388    -0.17700
C4458       C  0.80291630  0.84889016  0.43180673     0.10700
S4459       S  0.86692172  0.91735836  0.41172039    -0.32600
S4460       S  0.77817183  0.82277024  0.44240790    -0.32600
H4461       H  0.75835979  0.84206675  0.45245455     0.28700
H4462       H  0.85687317  0.93765914  0.43182411     0.28700
H4463       H  0.86988941  0.85722808  0.41843553     0.19300
H4464       H  0.77396222  0.88254607  0.43204006     0.19300
C4465       C  0.82284253  0.57838273  0.40956816    -0.06500
C4466       C  0.83599210  0.58154865  0.43677838    -0.17600
C4467       C  0.84045500  0.60846975  0.44896992     0.10700
C4468       C  0.83246170  0.63381539  0.43285997    -0.06400
C4469       C  0.82245813  0.63046263  0.40374606    -0.17700
C4470       C  0.81753685  0.60320319  0.39213237     0.10700
S4471       S  0.85551072  0.60859723  0.48597083    -0.32600
S4472       S  0.80205111  0.60117742  0.35576572    -0.32600
H4473       H  0.81160779  0.57356738  0.35002304     0.28700
H4474       H  0.84695937  0.58150990  0.49510788     0.28700
H4475       H  0.84018911  0.56269303  0.45006325     0.19300
H4476       H  0.81692166  0.64905328  0.39062587     0.19300
C4477       C  0.91811172  0.80552096  0.40591913    -0.06500
C4478       C  0.91196239  0.78294042  0.38650246    -0.17600
C4479       C  0.91099133  0.78639238  0.35538972     0.10700
C4480       C  0.91601999  0.81310442  0.34261650    -0.06400
C4481       C  0.91963898  0.83635703  0.36196751    -0.17700
C4482       C  0.92102148  0.83284116  0.39331946     0.10700
S4483       S  0.90524268  0.75548829  0.33284913    -0.32600
S4484       S  0.92924849  0.86334134  0.41544769    -0.32600
H4485       H  0.94301324  0.84831584  0.43818161     0.28700
H4486       H  0.89697173  0.77055117  0.30707672     0.28700
H4487       H  0.90836551  0.76200022  0.39558988     0.19300
H4488       H  0.92432216  0.85695086  0.35248390     0.19300
C4489       C  0.91970501  0.81080113  0.09051871    -0.06500
C4490       C  0.91580044  0.78599082  0.10783231    -0.17600
C4491       C  0.91262550  0.78657364  0.13894088     0.10700
C4492       C  0.91336577  0.81257855  0.15421624    -0.06400
C4493       C  0.91490618  0.83772598  0.13688892    -0.17700
C4494       C  0.91902165  0.83707051  0.10559953     0.10700
S4495       S  0.90800823  0.75316907  0.15813287    -0.32600
S4496       S  0.92655171  0.87011574  0.08705909    -0.32600
H4497       H  0.94197109  0.85832297  0.06383722     0.28700
H4498       H  0.89426654  0.76475033  0.18275798     0.28700
H4499       H  0.91466400  0.76561353  0.09710132     0.19300
H4500       H  0.91530498  0.85803628  0.14794401     0.19300
C4501       C  0.89861714  0.64958564  0.41096048    -0.06500
C4502       C  0.91156128  0.62326053  0.40751811    -0.17600
C4503       C  0.91803634  0.61346879  0.37868554     0.10700
C4504       C  0.91035946  0.62976395  0.35319702    -0.06400
C4505       C  0.89366595  0.65329063  0.35667585    -0.17700
C4506       C  0.88870075  0.66409371  0.38505819     0.10700
S4507       S  0.93850812  0.58183258  0.37447453    -0.32600
S4508       S  0.87401133  0.69919202  0.38682613    -0.32600
H4509       H  0.86276200  0.69981535  0.35791670     0.28700
H4510       H  0.93764374  0.57316404  0.40461185     0.28700
H4511       H  0.91917939  0.61212292  0.42710118     0.19300
H4512       H  0.88819282  0.66576517  0.33709216     0.19300
C4513       C  0.90566263  0.67003561  0.10938769    -0.06500
C4514       C  0.88347378  0.67502318  0.12849625    -0.17600
C4515       C  0.88595855  0.67442068  0.15989111     0.10700
C4516       C  0.91143255  0.66934580  0.17290771    -0.06400
C4517       C  0.93377917  0.66565715  0.15375754    -0.18300
C4518       C  0.93116269  0.66586400  0.12259309     0.10700
S4519       S  0.85758392  0.68449445  0.18284638    -0.32600
S4520       S  0.96100792  0.66387747  0.09958443    -0.32600
H4521       H  0.97990307  0.66749026  0.12270882     0.28700
H4522       H  0.83871912  0.68811373  0.15950581     0.28700
H4523       H  0.86468113  0.68219926  0.11903836     0.19300
H4524       H  0.95368308  0.66252114  0.16311120     0.19300
C4525       C  0.65084395  0.84112196  0.43299985    -0.06500
C4526       C  0.63947014  0.86235047  0.45160227    -0.17600
C4527       C  0.64312213  0.89135777  0.44636762     0.10700
C4528       C  0.65827531  0.90007949  0.42157626    -0.06400
C4529       C  0.66730332  0.87937156  0.40121827    -0.17700
C4530       C  0.66405327  0.85018394  0.40673118     0.10700
S4531       S  0.62984434  0.91593892  0.47345372    -0.32600
S4532       S  0.67922398  0.82595119  0.38072899    -0.32600
H4533       H  0.69274633  0.81010396  0.40307331     0.28700
H4534       H  0.62780290  0.93917790  0.45369489     0.28700
H4535       H  0.62799436  0.85653586  0.47108719     0.19300
H4536       H  0.67931247  0.88591681  0.38219434     0.19300
C4537       C  0.64022151  0.63800734  0.43086831    -0.06500
C4538       C  0.63244270  0.62441092  0.40438368    -0.17600
C4539       C  0.63885077  0.59560397  0.39945248     0.10700
C4540       C  0.65286511  0.57970788  0.42169334    -0.06400
C4541       C  0.65897847  0.59313275  0.44882309    -0.17700
C4542       C  0.65339757  0.62189596  0.45334222     0.10700
S4543       S  0.62976890  0.58082620  0.36392895    -0.32600
S4544       S  0.66400555  0.63709130  0.48828885    -0.32600
H4545       H  0.67011813  0.66387879  0.47618278     0.28700
H4546       H  0.62430089  0.55362323  0.37525384     0.28700
H4547       H  0.62106809  0.63620411  0.38760082     0.19300
H4548       H  0.67029274  0.58156831  0.46583467     0.19300
C4549       C  0.66923647  0.89933514  0.05387959    -0.06500
C4550       C  0.68576241  0.87441384  0.05542791    -0.17600
C4551       C  0.67588923  0.84726704  0.04917003     0.10700
C4552       C  0.64853458  0.84433147  0.04203333    -0.06400
C4553       C  0.63159979  0.86885185  0.04285413    -0.17700
C4554       C  0.64155328  0.89613832  0.04801004     0.10700
S4555       S  0.69876833  0.81717547  0.04801030    -0.32600
S4556       S  0.61870579  0.92631900  0.04613896    -0.32600
H4557       H  0.59509686  0.91131514  0.03924924     0.28700
H4558       H  0.72241092  0.83175406  0.05572813     0.28700
H4559       H  0.70695534  0.87610217  0.06091683     0.19300
H4560       H  0.61046403  0.86691386  0.03734873     0.19300
C4561       C  0.63700137  0.63807990  0.03492747    -0.06500
C4562       C  0.66118268  0.63789318  0.05112713    -0.17600
C4563       C  0.67424603  0.61239076  0.05945353     0.10700
C4564       C  0.66369192  0.58570109  0.05036608    -0.06400
C4565       C  0.63848949  0.58560466  0.03628538    -0.17700
C4566       C  0.62476958  0.61117455  0.02892942     0.10700
S4567       S  0.70426457  0.61488670  0.08245556    -0.32600
S4568       S  0.59151876  0.60829222  0.01223316    -0.32600
H4569       H  0.58931288  0.57859256  0.01371024     0.28700
H4570       H  0.69963031  0.64274284  0.09244354     0.28700
H4571       H  0.67044311  0.65790010  0.05660016     0.19300
H4572       H  0.62992146  0.56540740  0.03024280     0.19300
C4573       C  0.58083277  0.84281460  0.38074501    -0.06500
C4574       C  0.60005569  0.83067204  0.36117980    -0.17600
C4575       C  0.59601210  0.83135456  0.32999570     0.10700
C4576       C  0.57292480  0.84515800  0.31866028    -0.06400
C4577       C  0.55690990  0.86162065  0.33806169    -0.17700
C4578       C  0.56070532  0.86068468  0.36888526     0.10700
S4579       S  0.61759463  0.81113400  0.30552568    -0.32600
S4580       S  0.53624359  0.87834787  0.39215745    -0.32600
H4581       H  0.55236172  0.87775592  0.41810437     0.28700
H4582       H  0.63723865  0.80413570  0.32722322     0.28700
H4583       H  0.61570268  0.81692894  0.37039736     0.19300
H4584       H  0.53900516  0.87232017  0.32956155     0.19300
C4585       C  0.56693397  0.84139121  0.06361353    -0.06500
C4586       C  0.58607978  0.83046005  0.08425213    -0.17600
C4587       C  0.58360637  0.83545718  0.11501060     0.10700
C4588       C  0.56171649  0.85188530  0.12505024    -0.06400
C4589       C  0.54568399  0.86677734  0.10388785    -0.17700
C4590       C  0.54788991  0.86148250  0.07329979     0.10700
S4591       S  0.60591363  0.81767875  0.14119104    -0.32600
S4592       S  0.52363545  0.87791485  0.04840939    -0.32600
H4593       H  0.53914007  0.87448596  0.02237931     0.28700
H4594       H  0.62490358  0.80845772  0.11989860     0.28700
H4595       H  0.60108505  0.81529824  0.07675218     0.19300
H4596       H  0.52918639  0.88012757  0.11153701     0.19300
C4597       C  0.56635333  0.66740083  0.37511844    -0.06500
C4598       C  0.57736817  0.67989411  0.34898125    -0.17600
C4599       C  0.57911118  0.66524676  0.32185183     0.10700
C4600       C  0.56942744  0.63737280  0.32025215    -0.06400
C4601       C  0.56229957  0.62358670  0.34723524    -0.17700
C4602       C  0.55991769  0.63832205  0.37434905     0.10700
S4603       S  0.59171976  0.68400256  0.28968387    -0.32600
S4604       S  0.54590225  0.62032281  0.40648318    -0.32600
H4605       H  0.53854105  0.59521277  0.39191816     0.28700
H4606       H  0.60581750  0.66030016  0.27847430     0.28700
H4607       H  0.58397274  0.70173017  0.34927521     0.19300
H4608       H  0.55568440  0.60178449  0.34635196     0.19300
C4609       C  0.55390774  0.65371552  0.13222870    -0.06500
C4610       C  0.54138396  0.63760290  0.10972799    -0.17600
C4611       C  0.54305786  0.64520157  0.07934839     0.10700
C4612       C  0.55855700  0.66895354  0.07122485    -0.06400
C4613       C  0.57373808  0.68265609  0.09349908    -0.17700
C4614       C  0.57110590  0.67584120  0.12377006     0.10700
S4615       S  0.52317693  0.62521892  0.05316788    -0.32600
S4616       S  0.58699473  0.69889734  0.15036132    -0.32600
H4617       H  0.58865561  0.67896062  0.17376642     0.28700
H4618       H  0.52039769  0.64625254  0.03100932     0.28700
H4619       H  0.52810089  0.62054141  0.11613573     0.19300
H4620       H  0.58601474  0.70073816  0.08746371     0.19300
O4621       O  0.61523236  0.69183117  0.54601146    -0.75700
O4622       O  0.59511643  0.66479743  0.51058287    -0.54600
C4623       C  0.60731520  0.66749592  0.53546900     0.78100
O4624       O  0.53700861  0.80388255  0.53334820    -0.60300
O4625       O  0.56881872  0.83257564  0.51287432    -0.53300
C4626       C  0.55163098  0.82618137  0.53344579     0.70100
O4627       O  0.53318798  0.71649816  0.54008931    -0.74800
O4628       O  0.54776081  0.67717233  0.51575613    -0.55400
C4629       C  0.53891828  0.68998371  0.53931428     0.76100
O4630       O  0.62686225  0.79331255  0.54807187    -0.60000
O4631       O  0.61531530  0.82724141  0.51341697    -0.53100
C4632       C  0.62436141  0.81978870  0.53892024     0.72700
Zr4633     Zr  0.61644552  0.74320916  0.52903325     2.54700
O4634       O  0.61142177  0.74240837  0.58314885    -0.80500
O4635       O  0.66513924  0.73621737  0.53357702    -0.94000
Zr4636     Zr  0.53739210  0.75795219  0.50881528     2.64700
O4637       O  0.51042191  0.77278007  0.55183812    -0.98900
O4638       O  0.49238381  0.75984770  0.48700787    -0.81000
O4639       O  0.57474313  0.72927442  0.51286737    -0.84300
O4640       O  0.58074914  0.77502608  0.51939854    -2.19000
O4641       O  0.64016889  0.79256671  0.90848616    -0.67700
O4642       O  0.63764703  0.80861703  0.95382019    -0.52300
C4643       C  0.63920273  0.81385857  0.92618818     0.71000
O4644       O  0.55414070  0.71133175  0.90054051    -0.60600
O4645       O  0.55906618  0.67388869  0.93206330    -0.52600
C4646       C  0.55677614  0.68458232  0.90556290     0.72800
O4647       O  0.54198005  0.80417092  0.92008974    -0.72000
O4648       O  0.57803532  0.83016946  0.93122480    -0.50700
C4649       C  0.56037012  0.82161379  0.91231719     0.74200
O4650       O  0.63783887  0.69324977  0.91564426    -0.67400
O4651       O  0.60862123  0.66613183  0.94279991    -0.54600
C4652       C  0.62764054  0.66928028  0.92398066     0.72600
Zr4653     Zr  0.63045571  0.74397885  0.92860394     2.77500
O4654       O  0.63376091  0.74257298  0.87420038    -0.98100
O4655       O  0.67934097  0.74297290  0.93480593    -0.78900
Zr4656     Zr  0.54732639  0.75335212  0.93032190     2.70100
O4657       O  0.52519109  0.75750920  0.88159050    -0.80200
O4658       O  0.49990085  0.74448956  0.94018245    -0.99300
Zr4659     Zr  0.58271987  0.69630768  0.97361883     2.21500
Zr4660     Zr  0.59263743  0.80213456  0.47687516     2.11100
O4661       O  0.59124815  0.77347081  0.92981920    -2.47900
O4662       O  0.58664330  0.72399792  0.92973097    -0.80000
O4663       O  0.63290975  0.77075643  0.97373792    -0.72200
O4664       O  0.53879164  0.72834555  0.46569862    -2.33100
O4665       O  0.62726544  0.71610631  0.97326066    -2.29300
O4666       O  0.54824387  0.78608332  0.46634975    -0.73900
H4667       H  0.58037098  0.78483508  0.53798118     0.78100
H4668       H  0.52235681  0.71802588  0.46212393     0.79200
H4669       H  0.59365223  0.78430335  0.91195786     0.81400
H4670       H  0.64117446  0.70160619  0.97353020     0.79000
H4671       H  0.48788237  0.78034579  0.48580323     0.42000
H4672       H  0.48999676  0.76053631  0.93065331     0.41000
H4673       H  0.51282759  0.77409145  0.88295988     0.40700
H4674       H  0.63273956  0.72234920  0.86859633     0.38600
H4675       H  0.68277492  0.72804758  0.95007320     0.41700
H4676       H  0.67298007  0.74829177  0.51768605     0.36500
H4677       H  0.59559170  0.75484892  0.58703099     0.42600
H4678       H  0.49176402  0.77595904  0.54441197     0.39100
H4679       H  0.61645738  0.75092448  0.86704957     0.44000
H4680       H  0.66845878  0.71653500  0.52681826     0.42700
H4681       H  0.50938910  0.75644619  0.56578724     0.42800
H4682       H  0.49595378  0.72794939  0.92748674     0.43200
O4683       O  0.91431990  0.68527926  0.56206558    -0.75700
O4684       O  0.87826286  0.65996199  0.55057175    -0.54600
C4685       C  0.89589155  0.66802657  0.56953156     0.78100
O4686       O  0.81510057  0.79558055  0.54397032    -0.60300
O4687       O  0.84692601  0.82199362  0.51978969    -0.53300
C4688       C  0.82561062  0.81965090  0.53550901     0.70100
O4689       O  0.80850092  0.69340180  0.55099784    -0.74800
O4690       O  0.84735279  0.66360296  0.04661275    -0.55400
C4691       C  0.81622630  0.66714596  0.54642755     0.76100
O4692       O  0.92374083  0.78187444  0.55857591    -0.60000
O4693       O  0.89511607  0.81555496  0.54360264    -0.53100
C4694       C  0.90917377  0.80365486  0.56456067     0.72700
Zr4695     Zr  0.90522648  0.73465517  0.55297356     2.54700
O4696       O  0.88203805  0.73382556  0.60096317    -0.80500
O4697       O  0.94554218  0.72764180  0.58388167    -0.94000
Zr4698     Zr  0.82478212  0.74304817  0.53794204     2.64700
O4699       O  0.81672084  0.74737063  0.59139856    -0.98900
O4700       O  0.77650522  0.74577799  0.52763321    -0.81000
O4701       O  0.86287748  0.71305663  0.54596215    -0.84300
O4702       O  0.86734987  0.76492131  0.54417524    -2.19000
O4703       O  0.92199862  0.78298504  0.94547734    -0.67700
O4704       O  0.89298112  0.81738616  0.95577570    -0.52300
C4705       C  0.90820321  0.80447581  0.93687652     0.71000
O4706       O  0.80798053  0.69317790  0.96185896    -0.60600
O4707       O  0.83618562  0.66220644  0.98664265    -0.52600
C4708       C  0.81584276  0.66757678  0.96989657     0.72800
O4709       O  0.80953576  0.79623674  0.96459827    -0.72000
O4710       O  0.84401324  0.82443333  0.98006941    -0.50700
C4711       C  0.82072895  0.82096622  0.96875388     0.74200
O4712       O  0.89387874  0.69308824  0.93114124    -0.67400
O4713       O  0.88208611  0.65980703  0.96570572    -0.54600
C4714       C  0.88677244  0.66817237  0.93857208     0.72600
Zr4715     Zr  0.90054723  0.73800296  0.95303137     2.77500
O4716       O  0.87999547  0.74601207  0.90399740    -0.98100
O4717       O  0.94240240  0.72387693  0.92864314    -0.78900
Zr4718     Zr  0.82202953  0.74410717  0.97301215     2.70100
O4719       O  0.80852391  0.74403245  0.92065566    -0.80200
O4720       O  0.77571530  0.74494159  0.99131364    -0.99300
Zr4721     Zr  0.87037713  0.68895443  0.00976443     2.21500
Zr4722     Zr  0.87654278  0.79528895  0.00255800     2.11100
O4723       O  0.86263927  0.76820322  0.96022409    -2.47900
O4724       O  0.86236295  0.72065877  0.97310271    -0.80000
O4725       O  0.91575251  0.76687300  0.99310013    -0.72200
O4726       O  0.82960459  0.71660670  0.01721822    -2.33100
O4727       O  0.91218042  0.70944992  0.99577319    -2.29300
O4728       O  0.83357695  0.77358085  0.01379834    -0.73900
H4729       H  0.86491316  0.77744253  0.56091250     0.78100
H4730       H  0.81422760  0.70481234  0.02153313     0.79200
H4731       H  0.85918385  0.78007521  0.94292089     0.81400
H4732       H  0.92520144  0.69473757  0.99121379     0.79000
H4733       H  0.77437283  0.76226592  0.51395118     0.42000
H4734       H  0.76812558  0.76331665  0.98422810     0.41000
H4735       H  0.79265786  0.75698983  0.91970963     0.40700
H4736       H  0.86078459  0.74099320  0.90637260     0.38600
H4737       H  0.94899522  0.70720796  0.94023502     0.41700
H4738       H  0.95377483  0.74651237  0.58627804     0.36500
H4739       H  0.89361285  0.72172790  0.61400874     0.42600
H4740       H  0.82539339  0.73027478  0.60034008     0.39100
H4741       H  0.88761231  0.73120576  0.89079866     0.44000
H4742       H  0.95836675  0.71708176  0.57103793     0.42700
H4743       H  0.82826996  0.76324997  0.59778367     0.42800
H4744       H  0.76630342  0.73058157  0.97918949     0.43200
O4745       O  0.66948666  0.55751414  0.64328980    -0.75700
O4746       O  0.64529818  0.51789537  0.64309676    -0.54600
C4747       C  0.64634066  0.54456462  0.64433481     0.78100
O4748       O  0.75495597  0.55037266  0.53660946    -0.60300
O4749       O  0.78743101  0.53341065  0.56771184    -0.53300
C4750       C  0.77751231  0.55303851  0.55028172     0.70100
O4751       O  0.67354119  0.56083828  0.56123834    -0.74800
O4752       O  0.63914551  0.53494719  0.57995002    -0.55400
C4753       C  0.64933576  0.55855800  0.57044972     0.76100
O4754       O  0.76709202  0.54407656  0.65489740    -0.60000
O4755       O  0.79461090  0.52017555  0.62297246    -0.53100
C4756       C  0.79100531  0.53625785  0.64524413     0.72700
Zr4757     Zr  0.71743556  0.53725731  0.64158892     2.54700
O4758       O  0.72405233  0.58821338  0.64548398    -0.80500
O4759       O  0.71145008  0.53447453  0.69556027    -0.94000
Zr4760     Zr  0.71191708  0.53129393  0.55161845     2.64700
O4761       O  0.71276149  0.57665866  0.52492261    -0.98900
O4762       O  0.69538503  0.51876045  0.50221905    -0.81000
O4763       O  0.69393068  0.52982164  0.59833176    -0.84300
O4764       O  0.73964802  0.53491474  0.59488509    -2.19000
O4765       O  0.76871139  0.95064988  0.66613156    -0.67700
O4766       O  0.79619229  0.97091413  0.63110508    -0.52300
C4767       C  0.79230252  0.95667696  0.65509826     0.71000
O4768       O  0.67997954  0.92549651  0.59581636    -0.60600
O4769       O  0.64325798  0.95158205  0.58758143    -0.52600
C4770       C  0.65503523  0.92699901  0.58938865     0.72800
O4771       O  0.75608267  0.92543948  0.55628836    -0.72000
O4772       O  0.79051597  0.95329588  0.57218518    -0.50700
C4773       C  0.78106498  0.92998930  0.56138962     0.74200
O4774       O  0.67168907  0.94623213  0.66907441    -0.67400
O4775       O  0.64036114  0.97177400  0.64204065    -0.54600
C4776       C  0.64691135  0.95413301  0.66246297     0.72600
Zr4777     Zr  0.71973737  0.95839011  0.65349942     2.77500
O4778       O  0.72282197  0.90717152  0.66038990    -0.98100
O4779       O  0.72062786  0.96713201  0.70709568    -0.78900
Zr4780     Zr  0.71318917  0.94806340  0.56539728     2.70100
O4781       O  0.71120124  0.89863294  0.54990441    -0.80200
O4782       O  0.68981274  0.94592939  0.51739073    -0.99300
Zr4783     Zr  0.66572630  0.99523528  0.60610938     2.21500
Zr4784     Zr  0.76633295  0.49220983  0.59343945     2.11100
O4785       O  0.74249746  0.95191963  0.60712564    -2.47900
O4786       O  0.69591221  0.95969375  0.61032925    -0.80000
O4787       O  0.74429945  0.49509025  0.64149150    -0.72200
O4788       O  0.68360120  0.49092120  0.55359730    -2.33100
O4789       O  0.69330995  0.00023269  0.65065595    -2.29300
O4790       O  0.73991670  0.48991699  0.54892623    -0.73900
H4791       H  0.74970771  0.55228050  0.59496056     0.78100
H4792       H  0.66941329  0.49061119  0.53876527     0.79200
H4793       H  0.75394363  0.93540355  0.60984073     0.81400
H4794       H  0.68397284  0.00172148  0.66952605     0.79000
H4795       H  0.67834317  0.52972004  0.49968117     0.42000
H4796       H  0.69925126  0.93102734  0.50591286     0.41000
H4797       H  0.71568225  0.88746081  0.56812571     0.40700
H4798       H  0.70880018  0.90261749  0.67536111     0.38600
H4799       H  0.73365247  0.95296018  0.71524460     0.41700
H4800       H  0.70542755  0.55377382  0.70128894     0.36500
H4801       H  0.73893805  0.59243291  0.63144196     0.42600
H4802       H  0.71117406  0.59154545  0.54033188     0.39100
H4803       H  0.71594676  0.89925291  0.64144142     0.44000
H4804       H  0.73001642  0.53266364  0.70370381     0.42700
H4805       H  0.69575862  0.57799058  0.51328563     0.42800
H4806       H  0.67202210  0.93763264  0.52217152     0.43200
O4807       O  0.66657810  0.54283698  0.93704401    -0.75700
O4808       O  0.64345837  0.53493004  0.89577192    -0.54600
C4809       C  0.65001804  0.55132633  0.91721044     0.78100
O4810       O  0.77388189  0.53592704  0.82577903    -0.60300
O4811       O  0.80005545  0.51565758  0.86243052    -0.53300
C4812       C  0.79729681  0.52941944  0.83788026     0.70100
O4813       O  0.67711654  0.54062833  0.81529114    -0.74800
O4814       O  0.64551518  0.51599693  0.84166876    -0.55400
C4815       C  0.65234696  0.53248367  0.82036846     0.76100
O4816       O  0.75384169  0.55881477  0.94175366    -0.60000
O4817       O  0.78947185  0.53497025  0.92114926    -0.53100
C4818       C  0.77877678  0.55661041  0.93502212     0.72700
Zr4819     Zr  0.71359559  0.53608605  0.92627283     2.54700
O4820       O  0.70908554  0.58641044  0.91447354    -0.80500
O4821       O  0.70961964  0.54542737  0.97952712    -0.94000
Zr4822     Zr  0.72371788  0.52988420  0.83695389     2.64700
O4823       O  0.72542232  0.58128196  0.83159171    -0.98900
O4824       O  0.72891226  0.52356731  0.78331111    -0.81000
O4825       O  0.69749011  0.52917014  0.87919076    -0.84300
O4826       O  0.74382911  0.53393707  0.88506906    -2.19000
O4827       O  0.75520145  0.93350634  0.94679109    -0.67700
O4828       O  0.79166421  0.95349962  0.92440422    -0.52300
C4829       C  0.78013247  0.93366136  0.93991649     0.71000
O4830       O  0.67576225  0.93406252  0.82753924    -0.60600
O4831       O  0.64673014  0.96883285  0.84228998    -0.52600
C4832       C  0.65144301  0.94556151  0.82943897     0.72800
O4833       O  0.77474415  0.93854745  0.83239019    -0.72000
O4834       O  0.80178695  0.96154418  0.86592118    -0.50700
C4835       C  0.79827745  0.94522965  0.84362771     0.74200
O4836       O  0.67841517  0.92737327  0.91909333    -0.67400
O4837       O  0.64631403  0.95438897  0.89633634    -0.54600
C4838       C  0.65502402  0.93072552  0.90765054     0.72600
Zr4839     Zr  0.71481541  0.95790025  0.93172383     2.77500
O4840       O  0.71282448  0.91679886  0.96537948    -0.98100
O4841       O  0.69606566  0.97464268  0.97878896    -0.78900
Zr4842     Zr  0.72470813  0.94631713  0.84308342     2.70100
O4843       O  0.72541507  0.89558190  0.85373075    -0.80200
O4844       O  0.72798156  0.93727752  0.78966510    -0.99300
Zr4845     Zr  0.67222613  0.99466750  0.87567661     2.21500
Zr4846     Zr  0.77250253  0.99232664  0.89239363     2.11100
O4847       O  0.74509187  0.95077110  0.89105829    -2.47900
O4848       O  0.69969183  0.95756338  0.88385986    -0.80000
O4849       O  0.74322082  0.99837475  0.93389901    -0.72200
O4850       O  0.70104443  0.98890282  0.83298550    -2.33100
O4851       O  0.68834766  0.99994994  0.92492001    -2.29300
O4852       O  0.75260341  0.98707513  0.84331656    -0.73900
H4853       H  0.75478014  0.55070017  0.88401119     0.78100
H4854       H  0.69120420  0.98702098  0.81445543     0.79200
H4855       H  0.75534202  0.93335211  0.89249296     0.81400
H4856       H  0.67348477  0.00246101  0.93862239     0.79000
H4857       H  0.74156282  0.50728019  0.78141853     0.42000
H4858       H  0.71689711  0.95242371  0.78009045     0.41000
H4859       H  0.71878714  0.89395570  0.87453277     0.40700
H4860       H  0.71302723  0.89988470  0.95237170     0.38600
H4861       H  0.67786052  0.96618195  0.97995917     0.41700
H4862       H  0.69426100  0.53385919  0.98651521     0.36500
H4863       H  0.71622665  0.58840280  0.89393551     0.42600
H4864       H  0.72804985  0.58449981  0.80989417     0.39100
H4865       H  0.69455211  0.91706494  0.97433889     0.44000
H4866       H  0.70310358  0.56528742  0.98084108     0.42700
H4867       H  0.70671974  0.58791304  0.83544188     0.42800
H4868       H  0.71752471  0.91973914  0.78660355     0.43200
O4869       O  0.51480115  0.58091407  0.65744701    -0.75700
O4870       O  0.54657661  0.59766180  0.68966240    -0.54600
C4871       C  0.53980847  0.58624003  0.66518204     0.78100
O4872       O  0.91679380  0.68200430  0.70790830    -0.60300
O4873       O  0.88859692  0.64690744  0.71522166    -0.53300
C4874       C  0.89825948  0.66614562  0.69796436     0.70100
O4875       O  0.50038939  0.66677520  0.66412185    -0.74800
O4876       O  0.53889667  0.64759797  0.68367853    -0.55400
C4877       C  0.52524542  0.65904120  0.66184705     0.76100
O4878       O  0.91515636  0.57247702  0.68542259    -0.60000
O4879       O  0.88939027  0.59214991  0.72199273    -0.53100
C4880       C  0.89193232  0.57781500  0.69824092     0.72700
Zr4881     Zr  0.96506429  0.58196573  0.69363201     2.54700
O4882       O  0.96229376  0.59010423  0.63993097    -0.80500
O4883       O  0.96217059  0.53075713  0.68719099    -0.94000
Zr4884     Zr  0.96435862  0.66934625  0.70651594     2.64700
O4885       O  0.95671955  0.70372727  0.66592401    -0.98900
O4886       O  0.98184229  0.71527051  0.72173155    -0.81000
O4887       O  0.49016630  0.62882685  0.68959450    -0.84300
O4888       O  0.94091390  0.62475867  0.70399619    -2.19000
O4889       O  0.92683917  0.55467440  0.79429537    -0.67700
O4890       O  0.89453766  0.58566804  0.77679250    -0.52300
C4891       C  0.90172585  0.56322130  0.79074804     0.71000
O4892       O  0.51922048  0.62258381  0.79976867    -0.60600
O4893       O  0.54939300  0.63924571  0.76799305    -0.52600
C4894       C  0.54208412  0.63378134  0.79498105     0.72800
O4895       O  0.93576643  0.65334711  0.82411677    -0.72000
O4896       O  0.89933925  0.63678872  0.79868816    -0.50700
C4897       C  0.91145918  0.64441718  0.82297161     0.74200
O4898       O  0.52574643  0.55595750  0.77601982    -0.67400
O4899       O  0.55201529  0.58493882  0.74717854    -0.54600
C4900       C  0.54914108  0.56542778  0.76680464     0.72600
Zr4901     Zr  0.97429918  0.57070326  0.78002209     2.77500
O4902       O  0.97669350  0.55765777  0.83269499    -0.98100
O4903       O  0.97885127  0.52155888  0.76469594    -0.78900
Zr4904     Zr  0.97411146  0.65628872  0.79133175     2.70100
O4905       O  0.98161871  0.67685530  0.84048453    -0.80200
O4906       O  0.97579829  0.70761680  0.78502497    -0.99300
Zr4907     Zr  0.52210692  0.61959732  0.72719879     2.21500
Zr4908     Zr  0.91837068  0.62057598  0.75056234     2.11100
O4909       O  0.95003031  0.61271738  0.78959173    -2.47900
O4910       O  0.50064029  0.60537584  0.77196040    -0.80000
O4911       O  0.94299186  0.57730612  0.74052219    -0.72200
O4912       O  0.49974602  0.66159874  0.74316880    -2.33100
O4913       O  0.49818315  0.57593761  0.71940350    -2.29300
O4914       O  0.94145126  0.66455862  0.75325877    -0.73900
H4915       H  0.92742055  0.62401508  0.68872648     0.78100
H4916       H  0.51271156  0.67643066  0.74645490     0.79200
H4917       H  0.94175655  0.60698609  0.80801517     0.81400
H4918       H  0.51038914  0.56075480  0.71384059     0.79000
H4919       H  0.99843353  0.71793142  0.70974463     0.42000
H4920       H  0.96211901  0.71519626  0.79905118     0.41000
H4921       H  0.98413157  0.66048132  0.85425828     0.40700
H4922       H  0.98410317  0.53806301  0.83284306     0.38600
H4923       H  0.96527415  0.51941622  0.74860656     0.41700
H4924       H  0.47022691  0.53456864  0.64717030     0.36500
H4925       H  0.47158930  0.58461771  0.61643963     0.42600
H4926       H  0.94668814  0.71952292  0.67532966     0.39100
H4927       H  0.99143068  0.56935944  0.84087815     0.44000
H4928       H  0.94407232  0.52739695  0.67852979     0.42700
H4929       H  0.97459364  0.71180388  0.66113288     0.42800
H4930       H  0.99338355  0.71311940  0.79372355     0.43200
O4931       O  0.50524963  0.83507968  0.65254440    -0.75700
O4932       O  0.54309254  0.84403703  0.67934803    -0.54600
C4933       C  0.53040165  0.84097206  0.65424558     0.78100
O4934       O  0.91930119  0.92388285  0.69012733    -0.60300
O4935       O  0.89228840  0.89719492  0.72042866    -0.53300
C4936       C  0.89583091  0.91596756  0.70008263     0.70100
O4937       O  0.51650025  0.92338073  0.67757695    -0.74800
O4938       O  0.54728709  0.89378327  0.70012109    -0.55400
C4939       C  0.54117361  0.91505178  0.68385743     0.76100
O4940       O  0.92407388  0.81102732  0.70307893    -0.60000
O4941       O  0.89307157  0.84406395  0.70731922    -0.53100
C4942       C  0.90382649  0.82416109  0.69199863     0.72700
Zr4943     Zr  0.96963307  0.82697001  0.69525359     2.54700
O4944       O  0.95701881  0.81960118  0.64337151    -0.80500
O4945       O  0.98490216  0.77793583  0.69073179    -0.94000
Zr4946     Zr  0.96835129  0.91207418  0.69907191     2.64700
O4947       O  0.96552493  0.91318873  0.64470004    -0.98900
O4948       O  0.96728166  0.96348883  0.70363320    -0.81000
O4949       O  0.49317133  0.86413004  0.68710842    -0.84300
O4950       O  0.94311716  0.86916357  0.69915175    -2.19000
O4951       O  0.93788142  0.81414739  0.80891723    -0.67700
O4952       O  0.90143360  0.83842175  0.79051353    -0.52300
C4953       C  0.91326488  0.82235440  0.81047034     0.71000
O4954       O  0.52648465  0.91143394  0.78799695    -0.60600
O4955       O  0.55269989  0.88991919  0.75307421    -0.52600
C4956       C  0.54999790  0.90554167  0.77573363     0.72800
O4957       O  0.92805610  0.92143194  0.80421255    -0.72000
O4958       O  0.89636809  0.89668732  0.77812422    -0.50700
C4959       C  0.90316141  0.91517702  0.79731642     0.74200
O4960       O  0.52171146  0.81989043  0.79725880    -0.67400
O4961       O  0.55266851  0.83793576  0.76504100    -0.54600
C4962       C  0.54559122  0.82793760  0.79072217     0.72600
Zr4963     Zr  0.97786338  0.82112281  0.78024632     2.77500
O4964       O  0.98783861  0.79063462  0.82333302    -0.98100
O4965       O  0.98159714  0.77314697  0.76066487    -0.78900
Zr4966     Zr  0.97540418  0.90788647  0.78737994     2.70100
O4967       O  0.97821163  0.90464649  0.84165036    -0.80200
O4968       O  0.97699224  0.95945527  0.78762435    -0.99300
Zr4969     Zr  0.52332981  0.86041700  0.72723296     2.21500
Zr4970     Zr  0.92080704  0.86514485  0.74704404     2.11100
O4971       O  0.95201825  0.86401249  0.78768926    -2.47900
O4972       O  0.50098760  0.85939759  0.77361523    -0.80000
O4973       O  0.94573548  0.82184776  0.74103857    -0.72200
O4974       O  0.49831637  0.90410949  0.73293927    -2.33100
O4975       O  0.50233326  0.81551313  0.72781123    -2.29300
O4976       O  0.94530177  0.90919302  0.74584382    -0.73900
H4977       H  0.93069871  0.87037686  0.68252210     0.78100
H4978       H  0.50992350  0.92043386  0.73316308     0.79200
H4979       H  0.94322469  0.86444348  0.80687551     0.81400
H4980       H  0.51536396  0.80020532  0.72621957     0.79000
H4981       H  0.46012388  0.96461560  0.67276282     0.42000
H4982       H  0.95797860  0.96578106  0.78994528     0.41000
H4983       H  0.97386249  0.92404222  0.84862224     0.40700
H4984       H  0.98128620  0.80124784  0.84095608     0.38600
H4985       H  0.99973155  0.76632734  0.76700650     0.41700
H4986       H  0.00185836  0.77906553  0.67910704     0.36500
H4987       H  0.45907770  0.82195742  0.62499637     0.42600
H4988       H  0.96595147  0.89297958  0.63885441     0.39100
H4989       H  0.97552609  0.77431477  0.82164987     0.44000
H4990       H  0.97178115  0.76933783  0.67682162     0.42700
H4991       H  0.94683751  0.91959454  0.64013277     0.42800
H4992       H  0.98570279  0.96418203  0.80687359     0.43200
C4993       C  0.82430198  0.93507491  0.83053979    -0.06500
C4994       C  0.83306619  0.94693886  0.80346818    -0.17600
C4995       C  0.86013665  0.94416586  0.79414499     0.10700
C4996       C  0.87932915  0.92891198  0.81178874    -0.06400
C4997       C  0.87084481  0.91826762  0.83949254    -0.17700
C4998       C  0.84382367  0.92112834  0.84884008     0.10700
S4999       S  0.86924118  0.96096300  0.75947259    -0.32600
S5000       S  0.83496982  0.90619999  0.88443381    -0.32600
H5001       H  0.80893344  0.89845416  0.87517750     0.28700
H5002       H  0.89695890  0.96302447  0.76606026     0.28700
H5003       H  0.81905325  0.95953715  0.79009737     0.19300
H5004       H  0.88500444  0.90633067  0.85326489     0.19300
C5005       C  0.62589473  0.93287497  0.81697438    -0.06500
C5006       C  0.62662884  0.91691648  0.79086901    -0.17600
C5007       C  0.60267968  0.90832693  0.77639088     0.10700
C5008       C  0.57654673  0.91562281  0.78854768    -0.06400
C5009       C  0.57599736  0.93117687  0.81481134    -0.17700
C5010       C  0.59974232  0.93975190  0.82918002     0.10700
S5011       S  0.60712606  0.88783864  0.74259592    -0.32600
S5012       S  0.59510352  0.95921303  0.86362339    -0.32600
H5013       H  0.56671387  0.95966927  0.86466644     0.28700
H5014       H  0.63363883  0.89640091  0.73612320     0.28700
H5015       H  0.64613326  0.91168100  0.78136818     0.19300
H5016       H  0.55657284  0.93637964  0.82445706     0.19300
C5017       C  0.87789240  0.54779023  0.80293972    -0.06500
C5018       C  0.85621050  0.54250181  0.78307438    -0.17600
C5019       C  0.82976193  0.53694207  0.79321675     0.10700
C5020       C  0.82401707  0.53751720  0.82415368    -0.06400
C5021       C  0.84595891  0.54228222  0.84386648    -0.17700
C5022       C  0.87236767  0.54717395  0.83375985     0.10700
S5023       S  0.80458067  0.52873621  0.76562017    -0.32600
S5024       S  0.89796607  0.55364276  0.86139623    -0.32600
H5025       H  0.91828105  0.53823248  0.84657174     0.28700
H5026       H  0.79384643  0.50596103  0.78209200     0.28700
H5027       H  0.85978344  0.54362417  0.75919341     0.19300
H5028       H  0.84266834  0.54200244  0.86778276     0.19300
C5029       C  0.57564563  0.55559748  0.77983563    -0.06500
C5030       C  0.59537164  0.57657028  0.78531344    -0.17600
C5031       C  0.62137721  0.56990664  0.79621320     0.10700
C5032       C  0.62866901  0.54134678  0.80151291    -0.06400
C5033       C  0.60938317  0.52025866  0.79478241    -0.17700
C5034       C  0.58329347  0.52695377  0.78399831     0.10700
S5035       S  0.65406203  0.03549917  0.74183616    -0.32600
S5036       S  0.56110167  0.49796839  0.77570959    -0.32600
H5037       H  0.54777615  0.51147466  0.75166917     0.28700
H5038       H  0.67296095  0.05298380  0.75593699     0.28700
H5039       H  0.59026758  0.59873724  0.78174301     0.19300
H5040       H  0.61449628  0.49812693  0.79881241     0.19300
C5041       C  0.81758794  0.94657849  0.66982275    -0.06500
C5042       C  0.83933359  0.96558719  0.67209437    -0.17600
C5043       C  0.86540059  0.95654623  0.68062951     0.10700
C5044       C  0.87005714  0.92762900  0.68749331    -0.06400
C5045       C  0.84819684  0.90866035  0.68507154    -0.17700
C5046       C  0.82227384  0.91771695  0.67618068     0.10700
S5047       S  0.89138738  0.98303444  0.68252189    -0.32600
S5048       S  0.79581352  0.89201633  0.67136192    -0.32600
H5049       H  0.81232340  0.86765100  0.67409738     0.28700
H5050       H  0.90454054  0.97184127  0.70789636     0.28700
H5051       H  0.83592037  0.98780485  0.66701254     0.19300
H5052       H  0.85150423  0.88637380  0.69004216     0.19300
C5053       C  0.62250683  0.94187138  0.67631242    -0.06500
C5054       C  0.60266748  0.96117282  0.68682775    -0.17600
C5055       C  0.57487324  0.95484245  0.68616764     0.10700
C5056       C  0.56611689  0.92918975  0.67337665    -0.06400
C5057       C  0.58611072  0.91038239  0.66237058    -0.17700
C5058       C  0.61373316  0.91557813  0.66579284     0.10700
S5059       S  0.55170153  0.97970359  0.70299870    -0.32600
S5060       S  0.63711290  0.88732011  0.65764894    -0.32600
H5061       H  0.65659044  0.89572589  0.67861312     0.28700
H5062       H  0.53040680  0.97448187  0.68301508     0.28700
H5063       H  0.60883444  0.98197986  0.69423157     0.19300
H5064       H  0.58016388  0.88970288  0.65435569     0.19300
C5065       C  0.86574909  0.56722528  0.68548949    -0.06500
C5066       C  0.86659678  0.54539819  0.66468103    -0.17600
C5067       C  0.84299058  0.53408165  0.65228994     0.10700
C5068       C  0.81690441  0.54573446  0.65986402    -0.06400
C5069       C  0.81602864  0.56723357  0.68117599    -0.17700
C5070       C  0.83969898  0.57784422  0.69433779     0.10700
S5071       S  0.84801053  0.50501780  0.62643163    -0.32600
S5072       S  0.83511186  0.60579732  0.72145581    -0.32600
H5073       H  0.80858292  0.59874557  0.72973061     0.28700
H5074       H  0.87418375  0.49697139  0.63574013     0.28700
H5075       H  0.88608314  0.53690425  0.65812417     0.19300
H5076       H  0.79661980  0.57627604  0.68722799     0.19300
C5077       C  0.61884655  0.55874927  0.64390418    -0.06500
C5078       C  0.59636900  0.54189936  0.63534241    -0.17600
C5079       C  0.56955160  0.55179216  0.63677766     0.10700
C5080       C  0.56430147  0.57932439  0.64693337    -0.06400
C5081       C  0.58676348  0.59755199  0.65068316    -0.17700
C5082       C  0.61359189  0.58733940  0.65083612     0.10700
S5083       S  0.54288841  0.52774036  0.62744952    -0.32600
S5084       S  0.63938748  0.61088647  0.66379060    -0.32600
H5085       H  0.65115611  0.59076899  0.68339436     0.28700
H5086       H  0.52635343  0.54888345  0.61430507     0.28700
H5087       H  0.59941065  0.52020351  0.62818900     0.19300
H5088       H  0.58323048  0.61916831  0.65790905     0.19300
C5089       C  0.81360827  0.84775210  0.54352666    -0.06500
C5090       C  0.81429276  0.86946491  0.52152946    -0.17600
C5091       C  0.80760880  0.89769538  0.52813090     0.10700
C5092       C  0.79849027  0.90475237  0.55679533    -0.06400
C5093       C  0.79808387  0.88335389  0.57898089    -0.17700
C5094       C  0.80640190  0.85531793  0.57293957     0.10700
S5095       S  0.81111480  0.92409469  0.49925915    -0.32600
S5096       S  0.80843085  0.83060131  0.60375139    -0.32600
H5097       H  0.83327956  0.81859882  0.59489399     0.28700
H5098       H  0.81462349  0.94716971  0.51855075     0.28700
H5099       H  0.82082372  0.86453747  0.49902418     0.19300
H5100       H  0.79066536  0.88843456  0.60108889     0.19300
C5101       C  0.78910450  0.58263719  0.54938937    -0.06500
C5102       C  0.77469534  0.60386588  0.53311516    -0.17600
C5103       C  0.78007123  0.63297103  0.53602875     0.10700
C5104       C  0.80057065  0.64198248  0.55545840    -0.06400
C5105       C  0.81473629  0.62107659  0.57212530    -0.17700
C5106       C  0.80999238  0.59191440  0.56854735     0.10700
S5107       S  0.76275167  0.65843330  0.51217225    -0.32600
S5108       S  0.83370097  0.56804436  0.58617030    -0.32600
H5109       H  0.83551302  0.54985694  0.56144526     0.28700
H5110       H  0.74264838  0.64001059  0.50185365     0.28700
H5111       H  0.75928329  0.59775198  0.51739642     0.19300
H5112       H  0.83203443  0.62729910  0.58529185     0.19300
C5113       C  0.80758903  0.84891721  0.96139166    -0.06500
C5114       C  0.81487417  0.87225420  0.97957434    -0.17600
C5115       C  0.80876669  0.90041870  0.97172859     0.10700
C5116       C  0.79358263  0.90601069  0.94584120    -0.06400
C5117       C  0.78471881  0.88278284  0.92863037    -0.17700
C5118       C  0.79237824  0.85462788  0.93537575     0.10700
S5119       S  0.82031140  0.92803116  0.99614550    -0.32600
S5120       S  0.78297186  0.82738930  0.90951034    -0.32600
H5121       H  0.80856176  0.81409989  0.90959131     0.28700
H5122       H  0.82014232  0.94985394  0.97458201     0.28700
H5123       H  0.82637637  0.86863756  0.99993286     0.19300
H5124       H  0.77181144  0.88668199  0.90940043     0.19300
C5125       C  0.79398342  0.58287852  0.94252303    -0.06500
C5126       C  0.79436157  0.59071918  0.97270951    -0.17600
C5127       C  0.79809232  0.61902701  0.98149773     0.10700
C5128       C  0.80223166  0.64082479  0.96008744    -0.06400
C5129       C  0.80120643  0.63327340  0.92983420    -0.17700
C5130       C  0.79728521  0.60488091  0.92091374     0.10700
S5131       S  0.79620895  0.62748462  0.02057531    -0.32600
S5132       S  0.79534713  0.59840224  0.88140003    -0.32600
H5133       H  0.80605516  0.57088389  0.88357606     0.28700
H5134       H  0.80569549  0.60078458  0.03028469     0.28700
H5135       H  0.79002935  0.57481405  0.98954167     0.19300
H5136       H  0.80393222  0.64934767  0.91293091     0.19300
C5137       C  0.90674735  0.81049967  0.90373230    -0.06500
C5138       C  0.91480092  0.78848406  0.88453195    -0.17600
C5139       C  0.90990024  0.78951553  0.85380302     0.10700
C5140       C  0.90108892  0.81507383  0.84001469    -0.06400
C5141       C  0.89258866  0.83726944  0.85886200    -0.17700
C5142       C  0.89501010  0.83510669  0.89042394     0.10700
S5143       S  0.91749020  0.75795723  0.83262663    -0.32600
S5144       S  0.88569766  0.86548442  0.91225228    -0.32600
H5145       H  0.90841289  0.86362823  0.93116763     0.28700
H5146       H  0.90219024  0.76613214  0.80737602     0.28700
H5147       H  0.92409912  0.76937035  0.89355653     0.19300
H5148       H  0.88637538  0.85726074  0.84890672     0.19300
C5149       C  0.90502327  0.81105495  0.59710183    -0.06500
C5150       C  0.90837481  0.78873493  0.61787641    -0.17600
C5151       C  0.90260163  0.79169120  0.64821962     0.10700
C5152       C  0.89688487  0.81868549  0.65999348    -0.06400
C5153       C  0.89233566  0.84128558  0.63959434    -0.17700
C5154       C  0.89575178  0.83759254  0.60831970     0.10700
S5155       S  0.90379970  0.76010835  0.67126410    -0.32600
S5156       S  0.89008839  0.86802388  0.58450308    -0.32600
H5157       H  0.91212331  0.86223491  0.56564045     0.28700
H5158       H  0.88607845  0.77050535  0.69326654     0.28700
H5159       H  0.91561432  0.76836825  0.61051203     0.19300
H5160       H  0.88791723  0.86229427  0.64807213     0.19300
C5161       C  0.88356338  0.64981864  0.91231584    -0.06500
C5162       C  0.90510355  0.63147655  0.90612924    -0.17600
C5163       C  0.91357304  0.62741295  0.87654397     0.10700
C5164       C  0.89878220  0.64020842  0.85253177    -0.06400
C5165       C  0.87439003  0.65373850  0.85852480    -0.17700
C5166       C  0.86718849  0.65981381  0.88796522     0.10700
S5167       S  0.94520619  0.60883446  0.87035940    -0.32600
S5168       S  0.84052536  0.68590060  0.89151207    -0.32600
H5169       H  0.84210215  0.68923143  0.92233375     0.28700
H5170       H  0.94782991  0.59702394  0.89920998     0.28700
H5171       H  0.91793844  0.62430146  0.92438875     0.19300
H5172       H  0.86302473  0.66336354  0.84026891     0.19300
C5173       C  0.89428867  0.66008362  0.60152576    -0.06500
C5174       C  0.87006273  0.66415962  0.61767465    -0.17600
C5175       C  0.87019085  0.66538726  0.64935385     0.10700
C5176       C  0.89507862  0.66394480  0.66481897    -0.06400
C5177       C  0.91876004  0.65963703  0.64818782    -0.18300
C5178       C  0.91846148  0.65655380  0.61740381     0.10700
S5179       S  0.83919596  0.67142076  0.66949262    -0.32600
S5180       S  0.94961988  0.64861633  0.59847136    -0.32600
H5181       H  0.96577296  0.66401495  0.61828366     0.28700
H5182       H  0.82183535  0.66810420  0.64483142     0.28700
H5183       H  0.85151573  0.66846615  0.60553795     0.19300
H5184       H  0.93803925  0.65790498  0.65925132     0.19300
C5185       C  0.63681846  0.84462325  0.91684300    -0.06500
C5186       C  0.62953876  0.86414649  0.93937963    -0.17600
C5187       C  0.63035198  0.89344596  0.93500472     0.10700
C5188       C  0.63896029  0.90451360  0.90747388    -0.06400
C5189       C  0.64331531  0.88546936  0.88375905    -0.17700
C5190       C  0.64185329  0.85578746  0.88795380     0.10700
S5191       S  0.62366502  0.91569871  0.96678726    -0.32600
S5192       S  0.64877074  0.83368154  0.85630642    -0.32600
H5193       H  0.62590945  0.81675539  0.86085443     0.28700
H5194       H  0.61851602  0.94062231  0.95015575     0.28700
H5195       H  0.62396324  0.85677430  0.96135704     0.19300
H5196       H  0.65038495  0.89354640  0.86251501     0.19300
C5197       C  0.63942892  0.64213558  0.91492302    -0.06500
C5198       C  0.62487405  0.62556468  0.89453615    -0.17600
C5199       C  0.62601509  0.59572329  0.89572874     0.10700
C5200       C  0.64243647  0.58201980  0.91753154    -0.06400
C5201       C  0.65630731  0.59901536  0.93815240    -0.17700
C5202       C  0.65598561  0.62839635  0.93622311     0.10700
S5203       S  0.60385328  0.57667865  0.87124860    -0.32600
S5204       S  0.67524832  0.64741068  0.96376512    -0.32600
H5205       H  0.67894561  0.67170675  0.94589079     0.28700
H5206       H  0.59620692  0.55683277  0.89322671     0.28700
H5207       H  0.61080992  0.63586914  0.87928826     0.19300
H5208       H  0.66854756  0.58949845  0.95565792     0.19300
C5209       C  0.64211903  0.89909008  0.58288961    -0.06500
C5210       C  0.65696833  0.87402686  0.59046908    -0.17600
C5211       C  0.65094617  0.84738365  0.57848442     0.10700
C5212       C  0.62962287  0.84516562  0.55800457    -0.06400
C5213       C  0.61341255  0.86980782  0.55254202    -0.17700
C5214       C  0.61887920  0.89616984  0.56519029     0.10700
S5215       S  0.67262782  0.81787582  0.58822064    -0.32600
S5216       S  0.59626201  0.92522563  0.55634625    -0.32600
H5217       H  0.59497258  0.93467957  0.58608141     0.28700
H5218       H  0.67581601  0.80863351  0.55861325     0.28700
H5219       H  0.67456300  0.87531397  0.60482352     0.19300
H5220       H  0.59648137  0.86902317  0.53734188     0.19300
C5221       C  0.61339730  0.63992633  0.55139729    -0.06500
C5222       C  0.63652805  0.63789783  0.56930483    -0.17600
C5223       C  0.64710094  0.61139650  0.57830112     0.10700
C5224       C  0.63401748  0.58591486  0.56993283    -0.06400
C5225       C  0.60928439  0.58788842  0.55508934    -0.17700
C5226       C  0.59892746  0.61436590  0.54541348     0.10700
S5227       S  0.67885595  0.61046657  0.59838145    -0.32600
S5228       S  0.56831185  0.61405398  0.52335866    -0.32600
H5229       H  0.56002276  0.58655268  0.53128273     0.28700
H5230       H  0.68021319  0.63964213  0.60442015     0.28700
H5231       H  0.64768945  0.65695485  0.57411070     0.19300
H5232       H  0.59939326  0.56850800  0.54854961     0.19300
C5233       C  0.56516299  0.82563679  0.87977911    -0.06500
C5234       C  0.56834941  0.80096255  0.86244397    -0.17600
C5235       C  0.56849249  0.80197437  0.83123897     0.10700
C5236       C  0.56387433  0.82795149  0.81662677    -0.06400
C5237       C  0.56388543  0.85294032  0.83368863    -0.17700
C5238       C  0.56490861  0.85217818  0.86506117     0.10700
S5239       S  0.57018692  0.76956725  0.80998418    -0.32600
S5240       S  0.56127700  0.88535138  0.88446936    -0.32600
H5241       H  0.57705730  0.87763797  0.90930565     0.28700
H5242       H  0.57333241  0.75087834  0.83441694     0.28700
H5243       H  0.56913979  0.78041556  0.87310804     0.19300
H5244       H  0.55927723  0.87290573  0.82298772     0.19300
C5245       C  0.55306737  0.84019496  0.56296712    -0.06500
C5246       C  0.56986703  0.82680384  0.58458534    -0.17600
C5247       C  0.56544634  0.82970626  0.61535195     0.10700
C5248       C  0.54334051  0.84596633  0.62492325    -0.06400
C5249       C  0.52852672  0.86209002  0.60358110    -0.17700
C5250       C  0.53313627  0.85929556  0.57280145     0.10700
S5251       S  0.58539824  0.80912912  0.64168933    -0.32600
S5252       S  0.51117708  0.87807564  0.54714313    -0.32600
H5253       H  0.52899157  0.87684361  0.52271980     0.28700
H5254       H  0.60577555  0.80110236  0.62146580     0.28700
H5255       H  0.58473150  0.81146607  0.57767676     0.19300
H5256       H  0.51161409  0.87507447  0.61084163     0.19300
C5257       C  0.56003181  0.66682673  0.87856998    -0.06500
C5258       C  0.57136080  0.67986857  0.85304071    -0.17600
C5259       C  0.57045445  0.66713263  0.82500478     0.10700
C5260       C  0.55769242  0.64086017  0.82215461    -0.06400
C5261       C  0.55114683  0.62558879  0.84845854    -0.17700
C5262       C  0.55163128  0.63847211  0.87663922     0.10700
S5263       S  0.58309604  0.68677199  0.79347503    -0.32600
S5264       S  0.53890629  0.61957926  0.90886723    -0.32600
H5265       H  0.53112336  0.59485973  0.89384182     0.28700
H5266       H  0.59381675  0.66257764  0.77936173     0.28700
H5267       H  0.57989631  0.70087890  0.85460064     0.19300
H5268       H  0.54251204  0.60467243  0.84643486     0.19300
C5269       C  0.53647650  0.66109997  0.63114439    -0.06500
C5270       C  0.52477945  0.64399310  0.60882402    -0.17600
C5271       C  0.52572025  0.65145979  0.57820354     0.10700
C5272       C  0.53958083  0.67621473  0.56948607    -0.06400
C5273       C  0.55335596  0.69154006  0.59172649    -0.17700
C5274       C  0.55177663  0.68452768  0.62210076     0.10700
S5275       S  0.50662140  0.63017654  0.55249053    -0.32600
S5276       S  0.56721825  0.70819385  0.64836862    -0.32600
H5277       H  0.57204254  0.68744129  0.67050357     0.28700
H5278       H  0.50244666  0.65129826  0.53062478     0.28700
H5279       H  0.51258309  0.62610597  0.61555629     0.19300
H5280       H  0.56443418  0.71037221  0.58547295     0.19300
loop_ 
_geom_bond_atom_site_label_1 
_geom_bond_atom_site_label_2 
_geom_bond_distance 
_geom_bond_site_symmetry_2 
_ccdc_geom_bond_type 
O1          Zr13   2.538       .  S
O1            C3   1.308       .  A
O2         Zr699   2.362   1_554  S
O2            C3   1.273       .  A
C3          C601   1.506       .  S
O4          Zr16   2.440       .  S
O4            C6   1.285       .  A
O5          Zr40   2.443   1_554  S
O5            C6   1.288       .  A
C6          C625   1.474       .  S
O7          Zr16   2.420       .  S
O7            C9   1.281       .  A
O8         Zr699   2.462   1_554  S
O8            C9   1.291       .  A
C9          C652   1.488       .  S
O10         Zr13   2.562       .  S
O10          C12   1.312       .  A
O11         Zr40   2.321   1_554  S
O11          C12   1.271       .  A
C12         C592   1.495       .  S
Zr13         O14   2.435       .  S
Zr13         O15   2.434       .  S
Zr13         O19   2.279       .  S
Zr13         O20   2.357       .  S
Zr13        O703   2.373   1_554  S
Zr13        O705   2.388   1_554  S
O14          H57   0.990       .  S
O15          H56   0.990       .  S
O15          H60   0.990       .  S
Zr16         O17   2.446       .  S
Zr16         O18   2.430       .  S
Zr16         O19   2.276       .  S
Zr16         O20   2.360       .  S
Zr16         O44   2.393   1_554  S
Zr16         O46   2.370   1_554  S
O17          H58   0.988       .  S
O17          H61   0.991       .  S
O18          H51   0.990   1_455  S
O19        Zr699   2.247   1_554  S
O20         Zr40   2.376   1_554  S
O20          H47   0.959       .  S
O21         Zr33   2.562       .  S
O21          C23   1.312       .  A
O22        Zr700   2.318       .  S
O22          C23   1.272       .  A
C23         C565   1.484       .  S
O24         Zr36   2.420       .  S
O24          C26   1.282       .  A
O25         Zr39   2.460       .  S
O25          C26   1.290       .  A
C26         C637   1.510       .  S
O27         Zr36   2.419       .  S
O27          C29   1.282       .  A
O28        Zr700   2.448       .  S
O28          C29   1.289       .  A
C29         C613   1.468       .  S
O30         Zr33   2.515       .  S
O30          C32   1.303       .  A
O31         Zr39   2.367       .  S
O31          C32   1.276       .  A
C32         C577   1.496       .  S
Zr33         O34   2.437       .  S
Zr33         O35   2.435       .  S
Zr33         O42   2.291       .  S
Zr33         O41   2.349       .  S
Zr33         O45   2.395       .  S
Zr33         O43   2.369       .  S
O34          H54   0.990       .  S
O34          H59   0.990       .  S
O35          H55   0.990       .  S
Zr36         O37   2.438       .  S
Zr36         O38   2.431       .  S
Zr36         O42   2.271       .  S
Zr36         O41   2.366       .  S
Zr36        O706   2.385       .  S
Zr36        O704   2.386       .  S
O37          H53   0.991       .  S
O38          H52   0.989   1_455  S
O38          H62   0.990   1_455  S
Zr39        O662   2.345       .  S
Zr39        O668   2.462       .  S
Zr39         O42   2.244       .  S
Zr39        O679   2.247       .  S
Zr39         O45   2.408       .  S
Zr39        O704   2.383       .  S
Zr40        O682   2.377       .  S
Zr40        O688   2.442       .  S
Zr40         O46   2.372       .  S
Zr40        O701   2.385       .  S
Zr40        O703   2.406       .  S
O41        Zr700   2.377       .  S
O41          H49   0.960       .  S
O43        Zr673   2.391       .  S
O43        Zr700   2.410       .  S
O44        Zr696   2.401       .  S
O44        Zr699   2.391       .  S
O44          H48   0.966       .  S
O45        Zr673   2.382       .  S
O45          H50   0.966       .  S
O46        Zr696   2.380       .  S
O63         Zr75   2.374       .  S
O63          C65   1.275       .  A
O64        Zr761   2.517       .  S
O64          C65   1.303       .  A
C65         C553   1.472       .  S
O66         Zr78   2.539       .  S
O66          C68   1.307       .  A
O67        Zr762   2.359   1_554  S
O67          C68   1.275       .  A
C68         C469   1.490       .  S
O69         Zr78   2.539       .  S
O69          C71   1.307       .  A
O70        Zr101   2.309       .  S
O70         C731   1.268       .  A
C71         O730   1.276       .  A
C71         C484   1.496       .  S
O72         Zr75   2.432       .  S
O72          C74   1.278       .  A
O73        Zr762   2.471   1_554  S
O73          C74   1.287       .  A
C74         C529   1.505       .  S
Zr75         O76   2.446       .  S
Zr75         O77   2.450       .  S
Zr75         O81   2.366       .  S
Zr75         O82   2.401       .  S
Zr75        O765   2.378   1_554  S
Zr75        O767   2.393   1_554  S
O76         H119   0.990       .  S
O77         H118   0.990       .  S
O77         H122   0.988       .  S
Zr78         O79   2.436       .  S
Zr78         O80   2.435       .  S
Zr78         O82   2.369       .  S
Zr78         O81   2.354       .  S
Zr78        O766   2.377       .  S
Zr78        O768   2.375       .  S
O79         H120   0.990       .  S
O79         H123   0.990       .  S
O80         H113   0.990       .  S
O81        Zr761   2.340       .  S
O82        Zr762   2.373   1_554  S
O82         H109   0.958       .  S
O83         Zr95   2.417       .  S
O83          C85   1.280       .  A
O84        Zr102   2.460       .  S
O84          C85   1.291       .  A
C85         C517   1.479       .  S
O86         Zr98   2.562       .  S
O86          C88   1.310       .  A
O87        Zr101   2.359       .  S
O87          C88   1.263       .  A
C88         C508   1.517       .  S
O89         Zr98   2.556       .  S
O89          C91   1.311       .  A
O90        Zr102   2.339       .  S
O90          C91   1.271       .  A
C91         C493   1.493       .  S
O92         Zr95   2.388       .  S
O92          C94   1.275       .  A
O93        Zr101   2.457       .  S
O93          C94   1.290       .  A
C94         C541   1.471       .  S
Zr95         O96   2.441       .  S
Zr95         O97   2.433       .  S
Zr95        O104   2.263       .  S
Zr95        O103   2.365       .  S
Zr95        O107   2.381       .  S
Zr95        O105   2.383       .  S
O96         H116   0.991       .  S
O96         H121   0.990       .  S
O97         H117   0.990       .  S
Zr98         O99   2.434       .  S
Zr98        O100   2.437       .  S
Zr98        O104   2.274       .  S
Zr98        O103   2.367       .  S
Zr98        O108   2.377       .  S
Zr98        O106   2.370       .  S
O99         H115   0.990       .  S
O100        H114   0.990       .  S
O100        H124   0.990       .  S
Zr101       O724   2.498       .  S
Zr101       O104   2.254       .  S
Zr101       O106   2.408       .  S
Zr101       O107   2.365       .  S
Zr101       O741   2.338       .  S
Zr102       O727   2.372       .  S
Zr102       O733   2.453       .  S
Zr102       O103   2.389       .  S
Zr102       O105   2.388       .  S
Zr102       O108   2.413       .  S
Zr102       O742   2.380       .  S
O103        H111   0.962       .  S
O105       Zr735   2.386       .  S
O106       Zr738   2.354       .  S
O106        H110   0.966       .  S
O107       Zr735   2.386       .  S
O107        H112   0.965       .  S
O108       Zr738   2.386       .  S
O125       Zr137   2.557       .  S
O125        C127   1.312       .  A
O126      Zr1483   2.324   1_545  S
O126        C127   1.271       .  A
C127        C457   1.501       .  S
O128       Zr140   2.415       .  S
O128        C130   1.284       .  A
O129       Zr164   2.526   1_545  S
O129        C130   1.304       .  A
C130        C481   1.499       .  S
O131       Zr140   2.390       .  S
O131        C133   1.279       .  A
O132      Zr1483   2.527   1_545  S
O132        C133   1.306       .  A
C133        C604   1.497       .  S
O134       Zr137   2.545       .  S
O134        C136   1.302       .  A
O135       Zr164   2.359   1_545  S
O135        C136   1.257       .  A
C136        C448   1.502       .  S
Zr137       O138   2.433       .  S
Zr137       O139   2.434       .  S
Zr137       O143   2.361       .  S
Zr137       O144   2.362       .  S
Zr137       O167   2.373   1_545  S
Zr137      O1489   2.356   1_545  S
O138        H181   0.990       .  S
O139        H180   0.990       .  S
O139        H184   0.990       .  S
Zr140       O141   2.442       .  S
Zr140       O142   2.428       .  S
Zr140       O144   2.373       .  S
Zr140       O143   2.359       .  S
Zr140       O168   2.381   1_545  S
Zr140       O170   2.367   1_545  S
O141        H182   0.990       .  S
O141        H185   0.988       .  S
O142        H175   0.989       .  S
O143      Zr1483   2.348   1_545  S
O144       Zr164   2.387   1_545  S
O144        H171   0.957       .  S
O145       Zr157   2.532       .  S
O145        C147   1.306       .  A
O146      Zr1484   2.368       .  S
O146        C147   1.278       .  A
C147        C421   1.492       .  S
O148       Zr160   2.382       .  S
O148        C150   1.268       .  A
O149       Zr163   2.503       .  S
O149        C150   1.296       .  A
C150        C589   1.500       .  S
O151       Zr160   2.396       .  S
O151        C153   1.277       .  A
O152      Zr1484   2.485       .  S
O152        C153   1.297       .  A
C153        C472   1.488       .  S
O154       Zr157   2.556       .  S
O154        C156   1.312       .  A
O155       Zr163   2.330       .  S
O155        C156   1.271       .  A
C156        C433   1.484       .  S
Zr157       O158   2.433       .  S
Zr157       O159   2.436       .  S
Zr157       O166   2.262       .  S
Zr157       O165   2.389       .  S
Zr157       O169   2.363       .  S
Zr157      O1487   2.370       .  S
O158        H178   0.990       .  S
O158        H183   0.991       .  S
O159        H179   0.990       .  S
Zr160       O161   2.440       .  S
Zr160       O162   2.440       .  S
Zr160       O166   2.253       .  S
Zr160       O165   2.365       .  S
Zr160      O1490   2.387       .  S
Zr160      O1488   2.388       .  S
O161        H177   0.990       .  S
O162        H176   0.986       .  S
O162        H186   0.990       .  S
Zr163      O1446   2.356       .  S
Zr163      O1452   2.482       .  S
Zr163       O166   2.237       .  S
Zr163      O1463   2.261       .  S
Zr163       O169   2.428       .  S
Zr163      O1488   2.375       .  S
Zr164      O1466   2.345       .  S
Zr164      O1472   2.493       .  S
Zr164       O167   2.419       .  S
Zr164       O170   2.374       .  S
Zr164      O1485   2.382       .  S
O165      Zr1484   2.385       .  S
O165        H173   0.965       .  S
O167      Zr1477   2.372       .  S
O168      Zr1480   2.365       .  S
O168      Zr1483   2.389       .  S
O168        H172   0.965       .  S
O169      Zr1457   2.375       .  S
O169        H174   0.966       .  S
O170      Zr1480   2.361       .  S
O187       Zr199   2.382       .  S
O187        C189   1.274       .  A
O188      Zr1545   2.485   1_545  S
O188        C189   1.296       .  A
C189        C580   1.481       .  S
O190       Zr202   2.540       .  S
O190        C192   1.307       .  A
O191      Zr1546   2.339   1_545  S
O191        C192   1.270       .  A
C192        C400   1.485       .  S
O193       Zr202   2.526       .  S
O193        C195   1.304       .  A
O194      Zr1545   2.375   1_545  S
O194        C195   1.278       .  A
C195        C412   1.507       .  S
O196       Zr199   2.377       .  S
O196        C198   1.273       .  A
O197      Zr1546   2.523   1_545  S
O197        C198   1.305       .  A
C198        C505   1.489       .  S
Zr199       O200   2.440       .  S
Zr199       O201   2.430       .  S
Zr199       O205   2.378       .  S
Zr199       O206   2.374       .  S
Zr199      O1549   2.387   1_545  S
Zr199      O1551   2.383   1_545  S
O200        H243   0.990       .  S
O201        H242   0.988       .  S
O201        H246   0.990       .  S
Zr202       O203   2.435       .  S
Zr202       O204   2.432       .  S
Zr202       O206   2.365       .  S
Zr202       O205   2.393       .  S
Zr202      O1550   2.371   1_545  S
Zr202      O1552   2.376   1_545  S
O203        H244   0.990       .  S
O203        H247   0.989       .  S
O204        H237   0.990       .  S
O205      Zr1545   2.372   1_545  S
O206      Zr1546   2.375   1_545  S
O206        H233   0.962       .  S
O207       Zr219   2.413       .  S
O207        C209   1.275       .  A
O208       Zr226   2.479       .  S
O208        C209   1.292       .  A
C209        C496   1.494       .  S
O210       Zr222   2.586       .  S
O210        C212   1.318       .  A
O211       Zr225   2.350       .  S
O211        C212   1.270       .  A
C212        C385   1.526       .  S
O213       Zr222   2.549       .  S
O213        C215   1.310       .  A
O214       Zr226   2.336       .  S
O214        C215   1.272       .  A
C215        C373   1.482       .  S
O216       Zr219   2.379       .  S
O216        C218   1.273       .  A
O217       Zr225   2.517       .  S
O217        C218   1.302       .  A
C218        C568   1.506       .  S
Zr219       O220   2.443       .  S
Zr219       O221   2.432       .  S
Zr219       O227   2.379       .  S
Zr219       O228   2.375       .  S
Zr219       O231   2.381       .  S
Zr219       O229   2.359       .  S
O220        H240   0.989       .  S
O220        H245   0.988       .  S
O221        H241   0.990       .  S
Zr222       O223   2.434       .  S
Zr222       O224   2.436       .  S
Zr222       O228   2.361       .  S
Zr222       O227   2.384       .  S
Zr222       O232   2.373       .  S
Zr222       O230   2.351       .  S
O223        H239   0.990       .  S
O224        H238   0.990       .  S
O224        H248   0.990       .  S
Zr225      O1508   2.474       .  S
Zr225      O1514   2.379       .  S
Zr225       O228   2.340       .  S
Zr225       O230   2.411       .  S
Zr225       O231   2.380       .  S
Zr225      O1525   2.380       .  S
Zr226      O1511   2.325       .  S
Zr226      O1517   2.498       .  S
Zr226       O227   2.376       .  S
Zr226       O229   2.356       .  S
Zr226       O232   2.408       .  S
Zr226      O1526   2.381       .  S
O227        H235   0.961       .  S
O229      Zr1519   2.386       .  S
O230      Zr1522   2.371       .  S
O230        H234   0.964       .  S
O231      Zr1519   2.385       .  S
O231        H236   0.965       .  S
O232      Zr1522   2.366       .  S
O249      Zr2901   2.558   1_455  S
O249        C251   1.312       .  A
O250       Zr287   2.319       .  S
O250        C251   1.271       .  A
C251        C460   1.487       .  S
O252       Zr264   2.419       .  S
O252        C254   1.271       .  A
O253       Zr288   2.472       .  S
O253        C254   1.285       .  A
C254        C556   1.499       .  S
O255      Zr2904   2.431   1_455  S
O255        C257   1.284       .  A
O256       Zr287   2.490       .  S
O256        C257   1.296       .  A
C257        C649   1.487       .  S
O258       Zr261   2.555       .  S
O258        C260   1.312       .  A
O259       Zr288   2.346       .  S
O259        C260   1.270       .  A
C260        C445   1.505       .  S
Zr261      O2889   2.556       .  S
Zr261       O262   2.434       .  S
Zr261       O263   2.435       .  S
Zr261       O268   2.369       .  S
Zr261       O291   2.368       .  S
Zr261      O2907   2.362       .  S
Zr261      O2933   2.372       .  S
O262       H2945   0.990       .  S
O263        H308   0.990       .  S
O263       H2944   0.990       .  S
Zr264      O2895   2.411       .  S
Zr264       O265   2.447       .  S
Zr264       O266   2.440       .  S
Zr264       O268   2.403       .  S
Zr264       O294   2.389       .  S
Zr264      O2907   2.365       .  S
Zr264      O2932   2.380       .  S
O265        H306   0.990       .  S
O265        H309   0.990       .  S
O266        H299   0.990       .  S
O267       Zr287   2.347       .  S
O267      Zr2901   2.361   1_455  S
O267      Zr2904   2.355   1_455  S
O268       Zr288   2.362       .  S
O268        H295   0.954       .  S
O269       Zr281   2.533       .  S
O269        C271   1.306       .  A
O270       Zr288   2.344       .  S
O270        C271   1.271       .  A
C271        C397   1.477       .  S
O272      Zr2924   2.402   1_455  S
O272        C274   1.267       .  A
O273       Zr287   2.479       .  S
O273        C274   1.288       .  A
C274        C640   1.490       .  S
O275       Zr284   2.382       .  S
O275        C277   1.276       .  A
O276       Zr288   2.453       .  S
O276        C277   1.291       .  A
C277        C544   1.464       .  S
O278      Zr2921   2.523   1_455  S
O278        C280   1.305       .  A
O279       Zr287   2.365       .  S
O279        C280   1.276       .  A
C280        C409   1.494       .  S
Zr281      O2918   2.530       .  S
Zr281       O282   2.435       .  S
Zr281       O283   2.435       .  S
Zr281       O289   2.370       .  S
Zr281       O291   2.366       .  S
Zr281      O2930   2.367       .  S
Zr281      O2933   2.369       .  S
O282        H302   0.990       .  S
O282        H307   0.988       .  S
O283        H303   0.990       .  S
Zr284      O2912   2.402       .  S
Zr284       O285   2.440       .  S
Zr284       O286   2.441       .  S
Zr284       O289   2.382       .  S
Zr284       O294   2.384       .  S
Zr284      O2930   2.360       .  S
Zr284      O2932   2.389       .  S
O285        H301   0.988       .  S
O286        H300   0.990       .  S
O286        H310   0.989       .  S
Zr287       O290   2.373       .  S
Zr287       O292   2.377       .  S
Zr287       O293   2.417       .  S
Zr288       O289   2.372       .  S
Zr288       O291   2.406       .  S
Zr288       O294   2.369       .  S
O289        H297   0.964       .  S
O290      Zr2921   2.371   1_455  S
O290      Zr2924   2.363   1_455  S
O292      Zr2904   2.383   1_455  S
O292      Zr2924   2.392   1_455  S
O292        H296   0.965       .  S
O293      Zr2901   2.374   1_455  S
O293      Zr2921   2.367   1_455  S
O293        H298   0.966       .  S
H304       O2903   0.990       .  S
H305       O2902   0.990       .  S
O311      Zr2963   2.388   1_455  S
O311        C313   1.278       .  A
O312       Zr349   2.491       .  S
O312        C313   1.297       .  A
C313        C628   1.479       .  S
O314       Zr326   2.518       .  S
O314        C316   1.303       .  A
O315       Zr350   2.373       .  S
O315        C316   1.278       .  A
C316        C424   1.494       .  S
O317      Zr2966   2.554   1_455  S
O317        C319   1.310       .  A
O318       Zr349   2.327       .  S
O318        C319   1.269       .  A
C319        C436   1.487       .  S
O320       Zr323   2.415       .  S
O320        C322   1.272       .  A
O321       Zr350   2.462       .  S
O321        C322   1.283       .  A
C322        C532   1.493       .  S
Zr323      O2951   2.385       .  S
Zr323       O324   2.433       .  S
Zr323       O325   2.433       .  S
Zr323       O330   2.386       .  S
Zr323       O353   2.382       .  S
Zr323      O2969   2.369       .  S
Zr323      O2995   2.383       .  S
O324       H3007   0.990       .  S
O325        H366   0.990       .  S
O325        H370   0.989       .  S
Zr326      O2957   2.552       .  S
Zr326       O327   2.436       .  S
Zr326       O328   2.433       .  S
Zr326       O330   2.389       .  S
Zr326       O356   2.378       .  S
Zr326      O2969   2.357       .  S
Zr326      O2994   2.368       .  S
O327        H368   0.989       .  S
O327        H371   0.990       .  S
O328       H3001   0.990       .  S
O329       Zr349   2.340       .  S
O329      Zr2963   2.367   1_455  S
O329      Zr2966   2.359   1_455  S
O330       Zr350   2.395       .  S
O330        H357   0.961       .  S
O331       Zr343   2.420       .  S
O331        C333   1.280       .  A
O332       Zr350   2.488       .  S
O332        C333   1.295       .  A
C333        C520   1.496       .  S
O334      Zr2986   2.575   1_455  S
O334        C336   1.316       .  A
O335       Zr349   2.354       .  S
O335        C336   1.269       .  A
C336        C388   1.523       .  S
O337       Zr346   2.552       .  S
O337        C339   1.310       .  A
O338       Zr350   2.337       .  S
O338        C339   1.271       .  A
C339        C376   1.485       .  S
O340      Zr2983   2.404   1_455  S
O340        C342   1.281       .  A
O341       Zr349   2.459       .  S
O341        C342   1.290       .  A
C342        C616   1.471       .  S
Zr343      O2980   2.391       .  S
Zr343       O344   2.446       .  S
Zr343       O345   2.436       .  S
Zr343       O351   2.392       .  S
Zr343       O353   2.366       .  S
Zr343      O2992   2.370       .  S
Zr343      O2995   2.377       .  S
O344        H364   0.989       .  S
O344        H369   0.990       .  S
O345        H365   0.990       .  S
Zr346      O2974   2.529       .  S
Zr346       O347   2.434       .  S
Zr346       O348   2.432       .  S
Zr346       O351   2.363       .  S
Zr346       O356   2.364       .  S
Zr346      O2992   2.372       .  S
Zr346      O2994   2.374       .  S
O347        H363   0.990       .  S
O348        H362   0.990       .  S
O348        H372   0.990       .  S
Zr349       O352   2.355       .  S
Zr349       O354   2.404       .  S
Zr349       O355   2.380       .  S
Zr350       O351   2.384       .  S
Zr350       O353   2.380       .  S
Zr350       O356   2.403       .  S
O351        H359   0.961       .  S
O352      Zr2983   2.369   1_455  S
O352      Zr2986   2.354   1_455  S
O354      Zr2966   2.370   1_455  S
O354      Zr2986   2.362   1_455  S
O354        H358   0.966       .  S
O355      Zr2963   2.379   1_455  S
O355      Zr2983   2.389   1_455  S
O355        H360   0.966       .  S
H361       O2968   0.990       .  S
H367       O2964   0.990       .  S
C373        C374   1.409       .  A
C373        C378   1.410       .  A
C374        C375   1.406       .  A
C374        H383   1.085       .  S
C375        C376   1.412       .  A
C375        S379   1.797       .  S
C376        C377   1.411       .  A
C377        C378   1.409       .  A
C377        H384   1.084       .  S
C378        S380   1.799       .  S
S379        H382   1.404       .  S
S380        H381   1.405       .  S
C385        C386   1.396       .  A
C385        C390   1.444       .  A
C386        C387   1.412       .  A
C386        H395   1.082       .  S
C387        C388   1.440       .  A
C387        S391   1.811       .  S
C388        C389   1.396       .  A
C389        C390   1.415       .  A
C389        H396   1.082       .  S
C390        S392   1.814       .  S
S391        H394   1.407       .  S
S392        H393   1.406       .  S
C397        C398   1.413       .  A
C397        C402   1.406       .  A
C398        C399   1.414       .  A
C398        H407   1.084       .  S
C399        C400   1.414       .  A
C399        S403   1.800       .  S
C400        C401   1.410       .  A
C401        C402   1.395       .  A
C401        H408   1.084       .  S
C402        S404   1.798       .  S
S403        H406   1.404       .  S
S404        H405   1.405       .  S
C409        C410   1.417       .  A
C409        C414   1.406       .  A
C410        C411   1.414       .  A
C410        H419   1.083       .  S
C411        C412   1.414       .  A
C411       S1735   1.807       .  S
C412        C413   1.418       .  A
C413        C414   1.399       .  A
C413        H420   1.083       .  S
C414        S416   1.799       .  S
S415       C1731   1.806       .  S
S415        H418   1.407       .  S
S416        H417   1.407       .  S
C421        C422   1.414       .  A
C421        C426   1.406       .  A
C422        C423   1.407       .  A
C422        H431   1.082       .  S
C423        C424   1.413       .  A
C423        S427   1.805       .  S
C424        C425   1.416       .  A
C425        C426   1.403       .  A
C425        H432   1.084       .  S
C426        S428   1.798       .  S
S427        H430   1.403       .  S
S428        H429   1.406       .  S
C433        C434   1.416       .  A
C433        C438   1.405       .  A
C434        C435   1.412       .  A
C434        H443   1.084       .  S
C435        C436   1.412       .  A
C435        S439   1.802       .  S
C436        C437   1.413       .  A
C437        C438   1.401       .  A
C437        H444   1.083       .  S
C438        S440   1.798       .  S
S439        H442   1.405       .  S
S440        H441   1.405       .  S
C445        C446   1.391       .  A
C445        C450   1.435       .  A
C446        C447   1.406       .  A
C446        H455   1.082       .  S
C447        C448   1.437       .  A
C447        S451   1.807       .  S
C448        C449   1.390       .  A
C449        C450   1.401       .  A
C449        H456   1.084       .  S
C450        S452   1.792       .  S
S451        H454   1.406       .  S
S452        H453   1.396       .  S
C457        C458   1.425       .  A
C457        C462   1.405       .  A
C458        C459   1.405       .  A
C458        H467   1.082       .  S
C459        C460   1.397       .  A
C459        S463   1.804       .  S
C460        C461   1.419       .  A
C461        C462   1.407       .  A
C461        H468   1.080       .  S
C462        S464   1.805       .  S
S463        H466   1.407   1_545  S
S464        H465   1.407       .  S
C469        C470   1.407       .  A
C469        C474   1.418       .  A
C470        C471   1.398       .  A
C470        H479   1.085       .  S
C471        C472   1.414       .  A
C471        S475   1.805       .  S
C472        C473   1.410       .  A
C473        C474   1.416       .  A
C473        H480   1.084       .  S
C474        S476   1.803       .  S
S475        H478   1.407       .  S
S476        H477   1.402       .  S
C481        C482   1.419       .  A
C481        C486   1.407       .  A
C482        C483   1.404       .  A
C482        H491   1.084       .  S
C483        C484   1.405       .  A
C483        S487   1.799       .  S
C484        C485   1.419       .  A
C485        C486   1.408       .  A
C485        H492   1.083       .  S
C486        S488   1.800       .  S
S487        H490   1.406       .  S
S488        H489   1.405       .  S
C493        C494   1.421       .  A
C493        C498   1.401       .  A
C494        C495   1.411       .  A
C494        H503   1.081       .  S
C495        C496   1.402       .  A
C495        S499   1.801       .  S
C496        C497   1.417       .  A
C497        C498   1.406       .  A
C497        H504   1.081       .  S
C498        S500   1.802       .  S
S499        H502   1.408       .  S
S500        H501   1.407       .  S
C505        C506   1.391       .  A
C505        C510   1.424       .  A
C506        C507   1.408       .  A
C506        H515   1.083       .  S
C507        C508   1.442       .  A
C507        S511   1.813       .  S
C508        C509   1.401       .  A
C509        C510   1.410       .  A
C509        H516   1.083       .  S
C510        S512   1.800       .  S
S511        H514   1.407       .  S
S512        H513   1.403       .  S
C517        C518   1.414       .  A
C517        C522   1.404       .  A
C518        C519   1.409       .  A
C518        H527   1.082       .  S
C519        C520   1.408       .  A
C519        S523   1.798       .  S
C520        C521   1.415       .  A
C521        C522   1.400       .  A
C521        H528   1.082       .  S
C522        S524   1.804       .  S
S523        H526   1.403       .  S
S524        H525   1.406       .  S
C529        C530   1.410       .  A
C529        C534   1.415       .  A
C530        C531   1.398       .  A
C530        H539   1.078       .  S
C531        C532   1.409       .  A
C531        S535   1.805       .  S
C532        C533   1.413       .  A
C533        C534   1.415       .  A
C533        H540   1.083       .  S
C534        S536   1.800       .  S
S535        H538   1.407       .  S
S536        H537   1.406       .  S
C541        C542   1.396       .  A
C541        C546   1.423       .  A
C542        C543   1.401       .  A
C542        H551   1.083       .  S
C543        C544   1.422       .  A
C543        S547   1.812       .  S
C544        C545   1.385       .  A
C545        C546   1.391       .  A
C545        H552   1.084       .  S
C546        S548   1.799       .  S
S547        H550   1.407       .  S
S548        H549   1.407       .  S
C553        C554   1.413       .  A
C553        C558   1.404       .  A
C554        C555   1.412       .  A
C554        H563   1.079       .  S
C555        C556   1.407       .  A
C555        S559   1.804       .  S
C556        C557   1.409       .  A
C557        C558   1.398       .  A
C557        H564   1.078       .  S
C558        S560   1.807       .  S
S559        H562   1.407       .  S
S560        H561   1.406       .  S
C565        C566   1.414       .  A
C565        C570   1.398       .  A
C566        C567   1.405       .  A
C566        H575   1.073       .  S
C567        C568   1.406       .  A
C567        S571   1.803       .  S
C568        C569   1.426       .  A
C569        C570   1.405       .  A
C569        H576   1.080       .  S
C570        S572   1.805       .  S
S571        H574   1.406       .  S
S572        H573   1.406       .  S
C577        C578   1.416       .  A
C577        C582   1.411       .  A
C578        C579   1.400       .  A
C578        H587   1.084       .  S
C579        C580   1.406       .  A
C579        S583   1.801       .  S
C580        C581   1.413       .  A
C581        C582   1.408       .  A
C581        H588   1.084       .  S
C582        S584   1.800       .  S
S583        H586   1.405       .  S
S584        H585   1.407       .  S
C589        C590   1.424       .  A
C589        C594   1.404       .  A
C590        C591   1.404       .  A
C590        H599   1.083       .  S
C591        C592   1.401       .  A
C591        S595   1.800       .  S
C592        C593   1.421       .  A
C593        C594   1.398       .  A
C593        H600   1.081       .  S
C594        S596   1.800       .  S
S595        H598   1.407       .  S
S596        H597   1.408       .  S
C601        C602   1.397       .  A
C601        C606   1.434       .  A
C602        C603   1.406       .  A
C602        H611   1.082       .  S
C603        C604   1.428       .  A
C603        S607   1.810       .  S
C604        C605   1.394       .  A
C605        C606   1.409       .  A
C605        H612   1.083       .  S
C606        S608   1.808       .  S
S607        H610   1.407       .  S
S608        H609   1.407       .  S
C613        C614   1.415       .  A
C613        C618   1.396       .  A
C614        C615   1.405       .  A
C614        H623   1.082       .  S
C615        C616   1.399       .  A
C615        S619   1.803       .  S
C616        C617   1.412       .  A
C617        C618   1.393       .  A
C617        H624   1.079       .  S
C618        S620   1.800       .  S
S619        H622   1.407       .  S
S620        H621   1.407       .  S
C625        C626   1.412       .  A
C625        C630   1.402       .  A
C626        C627   1.402       .  A
C626        H635   1.078       .  S
C627        C628   1.400       .  A
C627        S631   1.804       .  S
C628        C629   1.415       .  A
C629        C630   1.400       .  A
C629        H636   1.083       .  S
C630        S632   1.803       .  S
S631        H634   1.407       .  S
S632        H633   1.406       .  S
C637        C638   1.416       .  A
C637        C642   1.418       .  A
C638        C639   1.399       .  A
C638        H647   1.083       .  S
C639        C640   1.405       .  A
C639        S643   1.800       .  S
C640        C641   1.414       .  A
C641        C642   1.415       .  A
C641        H648   1.083       .  S
C642        S644   1.807       .  S
S643        H646   1.406       .  S
S644        H645   1.407       .  S
C649        C650   1.415       .  A
C649        C654   1.405       .  A
C650        C651   1.412       .  A
C650        H659   1.082       .  S
C651        C652   1.406       .  A
C651        S655   1.804       .  S
C652        C653   1.410       .  A
C653        C654   1.401       .  A
C653        H660   1.083       .  S
C654        S656   1.799       .  S
S655        H658   1.407       .  S
S656        H657   1.405       .  S
O661       Zr673   2.521       .  S
O661        C663   1.304       .  A
O662        C663   1.269       .  A
C663       C1261   1.490       .  S
O664       Zr676   2.453       .  S
O664        C666   1.287       .  A
O665       Zr700   2.446       .  S
O665        C666   1.287       .  A
C666       C1285   1.478       .  S
O667       Zr676   2.402       .  S
O667        C669   1.279       .  A
O668        C669   1.291       .  A
C669       C1312   1.482       .  S
O670       Zr673   2.522       .  S
O670        C672   1.291       .  A
O671       Zr700   2.380       .  S
O671        C672   1.262       .  A
C672       C1252   1.505       .  S
Zr673       O674   2.436       .  S
Zr673       O675   2.434       .  S
Zr673       O679   2.277       .  S
Zr673       O680   2.379       .  S
O674        H717   0.990       .  S
O675        H716   0.990       .  S
O675        H720   0.990       .  S
Zr676       O677   2.440       .  S
Zr676       O678   2.432   1_455  S
Zr676       O679   2.282       .  S
Zr676       O680   2.362       .  S
Zr676       O704   2.405       .  S
Zr676       O706   2.371       .  S
O677        H718   0.991       .  S
O677        H721   0.991   1_455  S
O678        H711   0.990       .  S
O680       Zr700   2.390       .  S
O680        H707   0.959       .  S
O681       Zr693   2.506       .  S
O681        C683   1.286       .  A
O682        C683   1.261       .  A
C683       C1225   1.504       .  S
O684       Zr696   2.412       .  S
O684        C686   1.282       .  A
O685       Zr699   2.462       .  S
O685        C686   1.291       .  A
C686       C1297   1.495       .  S
O687       Zr696   2.441       .  S
O687        C689   1.287       .  A
O688        C689   1.288       .  A
C689       C1273   1.472       .  S
O690       Zr693   2.499       .  S
O690        C692   1.298       .  A
O691       Zr699   2.365       .  S
O691        C692   1.275       .  A
C692       C1237   1.474       .  S
Zr693       O694   2.439       .  S
Zr693       O695   2.434       .  S
Zr693       O701   2.388       .  S
Zr693       O702   2.365       .  S
Zr693       O705   2.391       .  S
Zr693       O703   2.392       .  S
O694        H714   0.990       .  S
O694        H719   0.989       .  S
O695        H715   0.990       .  S
Zr696       O697   2.442       .  S
Zr696       O698   2.429       .  S
Zr696       O702   2.366       .  S
Zr696       O701   2.363       .  S
O697        H713   0.990       .  S
O698        H712   0.990   1_455  S
O698        H722   0.990       .  S
Zr699       O702   2.355       .  S
Zr699       O705   2.407       .  S
Zr700       O706   2.378       .  S
O701        H709   0.961       .  S
O704        H708   0.966       .  S
O705        H710   0.966       .  S
O723       Zr735   2.383       .  S
O723        C725   1.277       .  A
O724        C725   1.297       .  A
C725       C1213   1.472       .  S
O726       Zr738   2.514       .  S
O726        C728   1.303       .  A
O727        C728   1.276       .  A
C728       C1129   1.482       .  S
O729       Zr738   2.560       .  S
O729        C731   1.311       .  A
O730       Zr761   2.354       .  S
C731       C1144   1.501       .  S
O732       Zr735   2.429       .  S
O732        C734   1.276       .  A
O733        C734   1.283       .  A
C734       C1189   1.493       .  S
Zr735       O736   2.449       .  S
Zr735       O737   2.446       .  S
Zr735       O741   2.377       .  S
Zr735       O742   2.401       .  S
O736        H779   0.989       .  S
O737        H778   0.990       .  S
O737        H782   0.986       .  S
Zr738       O739   2.436       .  S
Zr738       O740   2.434       .  S
Zr738       O742   2.384       .  S
Zr738       O741   2.364       .  S
O739        H780   0.990       .  S
O739        H783   0.990       .  S
O740        H773   0.990       .  S
O742        H769   0.959       .  S
O743       Zr755   2.431       .  S
O743        C745   1.281       .  A
O744       Zr762   2.458       .  S
O744        C745   1.289       .  A
C745       C1177   1.488       .  S
O746       Zr758   2.558       .  S
O746        C748   1.311       .  A
O747       Zr761   2.357   1_556  S
O747        C748   1.275       .  A
C748       C1168   1.501       .  S
O749       Zr758   2.537       .  S
O749        C751   1.307       .  A
O750       Zr762   2.353       .  S
O750        C751   1.274       .  A
C751       C1153   1.499       .  S
O752       Zr755   2.401       .  S
O752        C754   1.279       .  A
O753       Zr761   2.502   1_556  S
O753        C754   1.301       .  A
C754       C1201   1.492       .  S
Zr755       O756   2.445       .  S
Zr755       O757   2.437       .  S
Zr755       O763   2.378       .  S
Zr755       O764   2.368       .  S
Zr755       O767   2.380       .  S
Zr755       O765   2.384       .  S
O756        H776   0.990       .  S
O756        H781   0.990       .  S
O757        H777   0.990       .  S
Zr758       O759   2.435       .  S
Zr758       O760   2.434       .  S
Zr758       O764   2.360       .  S
Zr758       O763   2.377       .  S
Zr758       O768   2.377   1_556  S
Zr758       O766   2.369   1_556  S
O759        H775   0.990       .  S
O760        H774   0.990       .  S
O760        H784   0.990       .  S
Zr761       O764   2.359   1_554  S
Zr761       O766   2.408       .  S
Zr761       O767   2.377   1_554  S
Zr762       O763   2.386       .  S
Zr762       O765   2.388       .  S
Zr762       O768   2.410   1_556  S
O763        H771   0.959       .  S
O766        H770   0.966       .  S
O767        H772   0.965       .  S
O785       Zr797   2.557       .  S
O785        C787   1.307       .  A
O786      Zr2143   2.360   1_545  S
O786        C787   1.265       .  A
C787       C1117   1.517       .  S
O788       Zr800   2.403       .  S
O788        C790   1.279       .  A
O789       Zr824   2.492   1_545  S
O789        C790   1.299       .  A
C790       C1141   1.497       .  S
O791       Zr800   2.377       .  S
O791        C793   1.271       .  A
O792      Zr2143   2.462   1_545  S
O792        C793   1.292       .  A
C793       C1264   1.477       .  S
O794       Zr797   2.572       .  S
O794        C796   1.314       .  A
O795       Zr824   2.318   1_545  S
O795        C796   1.261       .  A
C796       C1108   1.514       .  S
Zr797       O798   2.435       .  S
Zr797       O799   2.437       .  S
Zr797       O803   2.289       .  S
Zr797       O804   2.361       .  S
Zr797       O827   2.370   1_545  S
Zr797      O2149   2.368   1_545  S
O798        H841   0.990       .  S
O799        H840   0.990       .  S
O799        H844   0.990       .  S
Zr800       O801   2.445       .  S
Zr800       O802   2.428       .  S
Zr800       O803   2.274       .  S
Zr800       O804   2.382       .  S
Zr800       O828   2.376   1_545  S
Zr800       O830   2.380   1_545  S
O801        H842   0.990       .  S
O801        H845   0.990       .  S
O802        H835   0.989       .  S
O803      Zr2143   2.251   1_545  S
O804       Zr824   2.387   1_545  S
O804        H831   0.962       .  S
O805       Zr817   2.522       .  S
O805        C807   1.304       .  A
O806      Zr2144   2.395       .  S
O806        C807   1.280       .  A
C807       C1081   1.497       .  S
O808       Zr820   2.385       .  S
O808        C810   1.274       .  A
O809       Zr823   2.484       .  S
O809        C810   1.295       .  A
C810       C1249   1.480       .  S
O811       Zr820   2.413       .  S
O811        C813   1.282       .  A
O812      Zr2144   2.477       .  S
O812        C813   1.295       .  A
C813       C1132   1.512       .  S
O814       Zr817   2.534       .  S
O814        C816   1.305       .  A
O815       Zr823   2.311       .  S
O815        C816   1.266       .  A
C816       C1093   1.486       .  S
Zr817       O818   2.436       .  S
Zr817       O819   2.435       .  S
Zr817       O826   2.279       .  S
Zr817       O825   2.369       .  S
Zr817       O829   2.369       .  S
Zr817      O2147   2.379       .  S
O818        H838   0.990       .  S
O818        H843   0.990       .  S
O819        H839   0.990       .  S
Zr820       O821   2.440       .  S
Zr820       O822   2.434       .  S
Zr820       O826   2.269       .  S
Zr820       O825   2.381       .  S
Zr820      O2150   2.387       .  S
Zr820      O2148   2.386       .  S
O821        H837   0.991       .  S
O822        H836   0.983       .  S
O822        H846   0.990       .  S
Zr823      O2106   2.350       .  S
Zr823      O2112   2.460       .  S
Zr823      O2123   2.254       .  S
Zr823       O826   2.239       .  S
Zr823      O2148   2.354       .  S
Zr823       O829   2.410       .  S
Zr824      O2126   2.382       .  S
Zr824      O2132   2.482       .  S
Zr824      O2145   2.371       .  S
Zr824       O827   2.416       .  S
Zr824       O830   2.371       .  S
O825      Zr2144   2.387       .  S
O825        H833   0.963       .  S
O827      Zr2137   2.384       .  S
O828      Zr2140   2.390       .  S
O828      Zr2143   2.371       .  S
O828        H832   0.966       .  S
O829      Zr2117   2.372       .  S
O829        H834   0.966       .  S
O830      Zr2140   2.383       .  S
O847       Zr859   2.413       .  S
O847        C849   1.271       .  A
O848      Zr2205   2.456   1_545  S
O848        C849   1.286       .  A
C849       C1240   1.470       .  S
O850       Zr862   2.552       .  S
O850        C852   1.310       .  A
O851      Zr2206   2.345   1_545  S
O851        C852   1.274       .  A
C852       C1060   1.514       .  S
O853       Zr862   2.544       .  S
O853        C855   1.310       .  A
O854      Zr2205   2.353   1_545  S
O854        C855   1.274       .  A
C855       C1072   1.497       .  S
O856       Zr859   2.375       .  S
O856        C858   1.272       .  A
O857      Zr2206   2.526   1_545  S
O857        C858   1.306       .  A
C858       C1165   1.487       .  S
Zr859       O860   2.438       .  S
Zr859       O861   2.416       .  S
Zr859       O865   2.354       .  S
Zr859       O866   2.371       .  S
Zr859      O2209   2.401       .  S
Zr859      O2211   2.388       .  S
O860        H903   0.990       .  S
O861        H902   0.986       .  S
O861        H906   0.990       .  S
Zr862       O863   2.435       .  S
Zr862       O864   2.433       .  S
Zr862       O866   2.382       .  S
Zr862       O865   2.373       .  S
Zr862      O2210   2.379   1_545  S
Zr862      O2212   2.359   1_545  S
O863        H904   0.990       .  S
O863        H907   0.990       .  S
O864        H897   0.990   1_545  S
O865      Zr2205   2.379   1_545  S
O866      Zr2206   2.390   1_545  S
O866        H893   0.965       .  S
O867       Zr879   2.378       .  S
O867        C869   1.273       .  A
O868       Zr886   2.509       .  S
O868        C869   1.300       .  A
C869       C1156   1.496       .  S
O870       Zr882   2.568       .  S
O870        C872   1.314       .  A
O871       Zr885   2.358       .  S
O871        C872   1.274       .  A
C872       C1045   1.507       .  S
O873       Zr882   2.540       .  S
O873        C875   1.309       .  A
O874       Zr886   2.352       .  S
O874        C875   1.274       .  A
C875       C1033   1.483       .  S
O876       Zr879   2.400       .  S
O876        C878   1.275       .  A
O877       Zr885   2.470       .  S
O877        C878   1.293       .  A
C878       C1228   1.476       .  S
Zr879       O880   2.448       .  S
Zr879       O881   2.421       .  S
Zr879       O887   2.373       .  S
Zr879       O888   2.368       .  S
Zr879       O891   2.366       .  S
Zr879       O889   2.373       .  S
O880        H900   0.991       .  S
O880        H905   0.988       .  S
O881        H901   0.990       .  S
Zr882       O883   2.436       .  S
Zr882       O884   2.435       .  S
Zr882       O888   2.367       .  S
Zr882       O887   2.375       .  S
Zr882       O892   2.374       .  S
Zr882       O890   2.353       .  S
O883        H899   0.990       .  S
O884        H898   0.990       .  S
O884        H908   0.990       .  S
Zr885      O2168   2.464       .  S
Zr885      O2174   2.367       .  S
Zr885      O2185   2.378       .  S
Zr885       O888   2.362       .  S
Zr885       O890   2.408       .  S
Zr885       O891   2.379       .  S
Zr886      O2171   2.341       .  S
Zr886      O2177   2.539       .  S
Zr886      O2186   2.372       .  S
Zr886       O887   2.383       .  S
Zr886       O889   2.359       .  S
Zr886       O892   2.416       .  S
O887        H895   0.962       .  S
O889      Zr2179   2.387       .  S
O890      Zr2182   2.364       .  S
O890        H894   0.965       .  S
O891      Zr2179   2.392       .  S
O891        H896   0.966       .  S
O892      Zr2182   2.362       .  S
O909      Zr3561   2.571   1_455  S
O909        C911   1.314       .  A
O910       Zr947   2.327       .  S
O910        C911   1.271       .  A
C911       C1120   1.506       .  S
O912       Zr924   2.441       .  S
O912        C914   1.276       .  A
O913       Zr948   2.472       .  S
O913        C914   1.284       .  A
C914       C1216   1.502       .  S
O915      Zr3564   2.433   1_455  S
O915        C917   1.285       .  A
O916       Zr947   2.480       .  S
O916        C917   1.294       .  A
C917       C1309   1.481       .  S
O918       Zr921   2.563       .  S
O918        C920   1.314       .  A
O919       Zr948   2.329       .  S
O919        C920   1.264       .  A
C920       C1105   1.511       .  S
Zr921      O3549   2.553       .  S
Zr921       O922   2.436       .  S
Zr921       O923   2.436       .  S
Zr921      O3567   2.364       .  S
Zr921       O928   2.362       .  S
Zr921       O951   2.368       .  S
Zr921      O3593   2.372       .  S
O922       H3605   0.990       .  S
O923       H3604   0.990       .  S
O923        H968   0.990       .  S
Zr924      O3555   2.431       .  S
Zr924       O925   2.454       .  S
Zr924       O926   2.437       .  S
Zr924       O928   2.397       .  S
Zr924      O3567   2.363       .  S
Zr924      O3592   2.386       .  S
Zr924       O954   2.392       .  S
O925        H966   0.989       .  S
O925        H969   0.989       .  S
O926        H959   0.990       .  S
O927      Zr3561   2.357       .  S
O927      Zr3564   2.362       .  S
O927       Zr947   2.344   1_655  S
O928       Zr948   2.371       .  S
O928        H955   0.952       .  S
O929       Zr941   2.531       .  S
O929        C931   1.306       .  A
O930       Zr948   2.343       .  S
O930        C931   1.271       .  A
C931       C1057   1.488       .  S
O932      Zr3584   2.414   1_455  S
O932        C934   1.277       .  A
O933       Zr947   2.455       .  S
O933        C934   1.288       .  A
C934       C1300   1.478       .  S
O935       Zr944   2.396       .  S
O935        C937   1.277       .  A
O936       Zr948   2.466       .  S
O936        C937   1.292       .  A
C937       C1204   1.473       .  S
O938      Zr3581   2.535   1_455  S
O938        C940   1.307       .  A
O939       Zr947   2.358       .  S
O939        C940   1.275       .  A
C940       C1069   1.512       .  S
Zr941      O3578   2.535       .  S
Zr941       O942   2.435       .  S
Zr941       O943   2.434       .  S
Zr941       O949   2.384       .  S
Zr941      O3590   2.357       .  S
Zr941      O3593   2.372       .  S
Zr941       O951   2.366       .  S
O942        H962   0.990       .  S
O942        H967   0.990       .  S
O943        H963   0.990       .  S
Zr944      O3572   2.400       .  S
Zr944       O945   2.436       .  S
Zr944       O946   2.439       .  S
Zr944      O3590   2.359       .  S
Zr944       O949   2.379       .  S
Zr944       O954   2.385       .  S
Zr944      O3592   2.397       .  S
O945        H961   0.990       .  S
O946        H960   0.990       .  S
O946        H970   0.990       .  S
Zr947       O950   2.368       .  S
Zr947       O952   2.369       .  S
Zr947       O953   2.406   1_455  S
Zr948       O949   2.370       .  S
Zr948       O951   2.409       .  S
Zr948       O954   2.370       .  S
O949        H957   0.964       .  S
O950      Zr3581   2.378   1_455  S
O950      Zr3584   2.364   1_455  S
O952      Zr3564   2.385   1_455  S
O952      Zr3584   2.387   1_455  S
O952        H956   0.966       .  S
O953      Zr3561   2.362       .  S
O953      Zr3581   2.375       .  S
O953        H958   0.966   1_655  S
H964       O3563   0.990       .  S
H965       O3562   0.990       .  S
O971      Zr3623   2.393   1_455  S
O971        C973   1.279       .  A
O972      Zr1009   2.493       .  S
O972        C973   1.297       .  A
C973       C1288   1.484       .  S
O974       Zr986   2.523       .  S
O974        C976   1.304       .  A
O975      Zr1010   2.389       .  S
O975        C976   1.279       .  A
C976       C1084   1.498       .  S
O977      Zr3626   2.529   1_455  S
O977        C979   1.305       .  A
O978      Zr1009   2.314       .  S
O978        C979   1.267       .  A
C979       C1096   1.476       .  S
O980       Zr983   2.421       .  S
O980        C982   1.273       .  A
O981      Zr1010   2.447       .  S
O981        C982   1.281       .  A
C982       C1192   1.486       .  S
Zr983      O3611   2.400       .  S
Zr983       O984   2.436       .  S
Zr983       O985   2.432       .  S
Zr983      O3629   2.361       .  S
Zr983       O990   2.393       .  S
Zr983      O1013   2.384       .  S
Zr983      O3655   2.383       .  S
O984       H3667   0.990       .  S
O985       H1026   0.990       .  S
O985       H1030   0.988       .  S
Zr986      O3617   2.550       .  S
Zr986       O987   2.437       .  S
Zr986       O988   2.436       .  S
Zr986       O990   2.388       .  S
Zr986      O3629   2.353       .  S
Zr986      O3654   2.374       .  S
Zr986      O1016   2.376       .  S
O987       H1028   0.990       .  S
O987       H1031   0.990       .  S
O988       H3661   0.990       .  S
O989      Zr3623   2.363       .  S
O989      Zr3626   2.358       .  S
O989      Zr1009   2.340   1_655  S
O990      Zr1010   2.385       .  S
O990       H1017   0.960       .  S
O991      Zr1003   2.410       .  S
O991        C993   1.279       .  A
O992      Zr1010   2.469       .  S
O992        C993   1.293       .  A
C993       C1180   1.475       .  S
O994      Zr3646   2.553   1_455  S
O994        C996   1.311       .  A
O995      Zr1009   2.365       .  S
O995        C996   1.274       .  A
C996       C1048   1.505       .  S
O997      Zr1006   2.543       .  S
O997        C999   1.308       .  A
O998      Zr1010   2.336       .  S
O998        C999   1.270       .  A
C999       C1036   1.482       .  S
O1000     Zr3643   2.413   1_455  S
O1000      C1002   1.283       .  A
O1001     Zr1009   2.451       .  S
O1001      C1002   1.289       .  A
C1002      C1276   1.479       .  S
Zr1003     O3640   2.403       .  S
Zr1003     O1004   2.443       .  S
Zr1003     O1005   2.435       .  S
Zr1003     O1011   2.392       .  S
Zr1003     O3652   2.359       .  S
Zr1003     O3655   2.384       .  S
Zr1003     O1013   2.371       .  S
O1004      H1024   0.991       .  S
O1004      H1029   0.990       .  S
O1005      H1025   0.990       .  S
Zr1006     O3634   2.561       .  S
Zr1006     O1007   2.435       .  S
Zr1006     O1008   2.434       .  S
Zr1006     O3652   2.358       .  S
Zr1006     O1011   2.375       .  S
Zr1006     O1016   2.381       .  S
Zr1006     O3654   2.366       .  S
O1007      H1023   0.990       .  S
O1008      H1022   0.990       .  S
O1008      H1032   0.990       .  S
Zr1009     O1012   2.244   1_455  S
Zr1009     O1014   2.408   1_455  S
Zr1009     O1015   2.374       .  S
Zr1010     O1011   2.383       .  S
Zr1010     O1013   2.384       .  S
Zr1010     O1016   2.407       .  S
O1011      H1019   0.962       .  S
O1012     Zr3643   2.270       .  S
O1012     Zr3646   2.278       .  S
O1014     Zr3626   2.380       .  S
O1014     Zr3646   2.375       .  S
O1014      H1018   0.966   1_655  S
O1015     Zr3623   2.387   1_455  S
O1015     Zr3643   2.384   1_455  S
O1015      H1020   0.966       .  S
H1021      O3628   0.990       .  S
H1027      O3624   0.990       .  S
C1033      C1034   1.413       .  A
C1033      C1038   1.410       .  A
C1034      C1035   1.409       .  A
C1034      H1043   1.084       .  S
C1035      C1036   1.411       .  A
C1035      S1039   1.802       .  S
C1036      C1037   1.410       .  A
C1037      C1038   1.403       .  A
C1037      H1044   1.082       .  S
C1038      S1040   1.801       .  S
S1039      H1042   1.403       .  S
S1040      H1041   1.404       .  S
C1045      C1046   1.400       .  A
C1045      C1050   1.431       .  A
C1046      C1047   1.414       .  A
C1046      H1055   1.083       .  S
C1047      C1048   1.428       .  A
C1047      S1051   1.804       .  S
C1048      C1049   1.394       .  A
C1049      C1050   1.409       .  A
C1049      H1056   1.082       .  S
C1050      S1052   1.804       .  S
S1051      H1054   1.407       .  S
S1052      H1053   1.406       .  S
C1057      C1058   1.418       .  A
C1057      C1062   1.399       .  A
C1058      C1059   1.410       .  A
C1058      H1067   1.083       .  S
C1059      C1060   1.412       .  A
C1059      S1063   1.798       .  S
C1060      C1061   1.426       .  A
C1061      C1062   1.399       .  A
C1061      H1068   1.082       .  S
C1062      S1064   1.799       .  S
S1063      H1066   1.407       .  S
S1064      H1065   1.407   1_545  S
C1069      C1070   1.426       .  A
C1069      C1074   1.411       .  A
C1070      C1071   1.406       .  A
C1070      H1079   1.081       .  S
C1071      C1072   1.401       .  A
C1071      S2395   1.806       .  S
C1072      C1073   1.420       .  A
C1073      C1074   1.406       .  A
C1073      H1080   1.084   1_545  S
C1074      S1076   1.801   1_545  S
S1075      C2391   1.806       .  S
S1075      H1078   1.407       .  S
S1076      H1077   1.407       .  S
C1081      C1082   1.411       .  A
C1081      C1086   1.409       .  A
C1082      C1083   1.409       .  A
C1082      H1091   1.083       .  S
C1083      C1084   1.411       .  A
C1083      S1087   1.799       .  S
C1084      C1085   1.413       .  A
C1085      C1086   1.412       .  A
C1085      H1092   1.082       .  S
C1086      S1088   1.805       .  S
S1087      H1090   1.405       .  S
S1088      H1089   1.407       .  S
C1093      C1094   1.422       .  A
C1093      C1098   1.402       .  A
C1094      C1095   1.402       .  A
C1094      H1103   1.083       .  S
C1095      C1096   1.398       .  A
C1095      S1099   1.804       .  S
C1096      C1097   1.418       .  A
C1097      C1098   1.399       .  A
C1097      H1104   1.080       .  S
C1098      S1100   1.797       .  S
S1099      H1102   1.406       .  S
S1100      H1101   1.406       .  S
C1105      C1106   1.390       .  A
C1105      C1110   1.443       .  A
C1106      C1107   1.405       .  A
C1106      H1115   1.082       .  S
C1107      C1108   1.444       .  A
C1107      S1111   1.816       .  S
C1108      C1109   1.394       .  A
C1109      C1110   1.409       .  A
C1109      H1116   1.082       .  S
C1110      S1112   1.818       .  S
S1111      H1114   1.406       .  S
S1112      H1113   1.406       .  S
C1117      C1118   1.428       .  A
C1117      C1122   1.409       .  A
C1118      C1119   1.406       .  A
C1118      H1127   1.083       .  S
C1119      C1120   1.402       .  A
C1119      S1123   1.799       .  S
C1120      C1121   1.423       .  A
C1121      C1122   1.410       .  A
C1121      H1128   1.084       .  S
C1122      S1124   1.798       .  S
S1123      H1126   1.407       .  S
S1124      H1125   1.407       .  S
C1129      C1130   1.410       .  A
C1129      C1134   1.401       .  A
C1130      C1131   1.412       .  A
C1130      H1139   1.082       .  S
C1131      C1132   1.421       .  A
C1131      S1135   1.800       .  S
C1132      C1133   1.419       .  A
C1133      C1134   1.401       .  A
C1133      H1140   1.081       .  S
C1134      S1136   1.806       .  S
S1135      H1138   1.407       .  S
S1136      H1137   1.407       .  S
C1141      C1142   1.422       .  A
C1141      C1146   1.401       .  A
C1142      C1143   1.412       .  A
C1142      H1151   1.082       .  S
C1143      C1144   1.406       .  A
C1143      S1147   1.805       .  S
C1144      C1145   1.423       .  A
C1145      C1146   1.401       .  A
C1145      H1152   1.084       .  S
C1146      S1148   1.800       .  S
S1147      H1150   1.407       .  S
S1148      H1149   1.407       .  S
C1153      C1154   1.423       .  A
C1153      C1158   1.404       .  A
C1154      C1155   1.406       .  A
C1154      H1163   1.083       .  S
C1155      C1156   1.402       .  A
C1155      S1159   1.799       .  S
C1156      C1157   1.421       .  A
C1157      C1158   1.405       .  A
C1157      H1164   1.082       .  S
C1158      S1160   1.807       .  S
S1159      H1162   1.406       .  S
S1160      H1161   1.407       .  S
C1165      C1166   1.403       .  A
C1165      C1170   1.420       .  A
C1166      C1167   1.407       .  A
C1166      H1175   1.083       .  S
C1167      C1168   1.420       .  A
C1167      S1171   1.808   1_556  S
C1168      C1169   1.406       .  A
C1169      C1170   1.415       .  A
C1169      H1176   1.081       .  S
C1170      S1172   1.803       .  S
S1171      H1174   1.406       .  S
S1172      H1173   1.407       .  S
C1177      C1178   1.410       .  A
C1177      C1182   1.409       .  A
C1178      C1179   1.397       .  A
C1178      H1187   1.081       .  S
C1179      C1180   1.403       .  A
C1179      S1183   1.802       .  S
C1180      C1181   1.415       .  A
C1181      C1182   1.409       .  A
C1181      H1188   1.084       .  S
C1182      S1184   1.803       .  S
S1183      H1186   1.407       .  S
S1184      H1185   1.405       .  S
C1189      C1190   1.408       .  A
C1189      C1194   1.412       .  A
C1190      C1191   1.396       .  A
C1190      H1199   1.078       .  S
C1191      C1192   1.408       .  A
C1191      S1195   1.805       .  S
C1192      C1193   1.412       .  A
C1193      C1194   1.408       .  A
C1193      H1200   1.081       .  S
C1194      S1196   1.801       .  S
S1195      H1198   1.407       .  S
S1196      H1197   1.406       .  S
C1201      C1202   1.400       .  A
C1201      C1206   1.431       .  A
C1202      C1203   1.410       .  A
C1202      H1211   1.082       .  S
C1203      C1204   1.419       .  A
C1203      S1207   1.807       .  S
C1204      C1205   1.387       .  A
C1205      C1206   1.395       .  A
C1205      H1212   1.085       .  S
C1206      S1208   1.801       .  S
S1207      H1210   1.406       .  S
S1208      H1209   1.390       .  S
C1213      C1214   1.409       .  A
C1213      C1218   1.403       .  A
C1214      C1215   1.414       .  A
C1214      H1223   1.083       .  S
C1215      C1216   1.416       .  A
C1215      S1219   1.799       .  S
C1216      C1217   1.406       .  A
C1217      C1218   1.394       .  A
C1217      H1224   1.077       .  S
C1218      S1220   1.804       .  S
S1219      H1222   1.405       .  S
S1220      H1221   1.403       .  S
C1225      C1226   1.418       .  A
C1225      C1230   1.412       .  A
C1226      C1227   1.397       .  A
C1226      H1235   1.079       .  S
C1227      C1228   1.400       .  A
C1227      S1231   1.802       .  S
C1228      C1229   1.413       .  A
C1229      C1230   1.412       .  A
C1229      H1236   1.083       .  S
C1230      S1232   1.805       .  S
S1231      H1234   1.406       .  S
S1232      H1233   1.407       .  S
C1237      C1238   1.403       .  A
C1237      C1242   1.413       .  A
C1238      C1239   1.407       .  A
C1238      H1247   1.084       .  S
C1239      C1240   1.416       .  A
C1239      S1243   1.802       .  S
C1240      C1241   1.397       .  A
C1241      C1242   1.396       .  A
C1241      H1248   1.081       .  S
C1242      S1244   1.803       .  S
S1243      H1246   1.407       .  S
S1244      H1245   1.407       .  S
C1249      C1250   1.411       .  A
C1249      C1254   1.406       .  A
C1250      C1251   1.410       .  A
C1250      H1259   1.081       .  S
C1251      C1252   1.410       .  A
C1251      S1255   1.798       .  S
C1252      C1253   1.417       .  A
C1253      C1254   1.401       .  A
C1253      H1260   1.082       .  S
C1254      S1256   1.804       .  S
S1255      H1258   1.406       .  S
S1256      H1257   1.405       .  S
C1261      C1262   1.393       .  A
C1261      C1266   1.433       .  A
C1262      C1263   1.398       .  A
C1262      H1271   1.083       .  S
C1263      C1264   1.423       .  A
C1263      S1267   1.808       .  S
C1264      C1265   1.389       .  A
C1265      C1266   1.403       .  A
C1265      H1272   1.083       .  S
C1266      S1268   1.805       .  S
S1267      H1270   1.406       .  S
S1268      H1269   1.407       .  S
C1273      C1274   1.411       .  A
C1273      C1278   1.401       .  A
C1274      C1275   1.406       .  A
C1274      H1283   1.083       .  S
C1275      C1276   1.405       .  A
C1275      S1279   1.804       .  S
C1276      C1277   1.410       .  A
C1277      C1278   1.397       .  A
C1277      H1284   1.084       .  S
C1278      S1280   1.799       .  S
S1279      H1282   1.408       .  S
S1280      H1281   1.407       .  S
C1285      C1286   1.413       .  A
C1285      C1290   1.404       .  A
C1286      C1287   1.408       .  A
C1286      H1295   1.079       .  S
C1287      C1288   1.403       .  A
C1287      S1291   1.804       .  S
C1288      C1289   1.413       .  A
C1289      C1290   1.399       .  A
C1289      H1296   1.084       .  S
C1290      S1292   1.803       .  S
S1291      H1294   1.406       .  S
S1292      H1293   1.406       .  S
C1297      C1298   1.416       .  A
C1297      C1302   1.411       .  A
C1298      C1299   1.395       .  A
C1298      H1307   1.084       .  S
C1299      C1300   1.403       .  A
C1299      S1303   1.801       .  S
C1300      C1301   1.412       .  A
C1301      C1302   1.408       .  A
C1301      H1308   1.083       .  S
C1302      S1304   1.804       .  S
S1303      H1306   1.407       .  S
S1304      H1305   1.408       .  S
C1309      C1310   1.414       .  A
C1309      C1314   1.405       .  A
C1310      C1311   1.407       .  A
C1310      H1319   1.083       .  S
C1311      C1312   1.408       .  A
C1311      S1315   1.806       .  S
C1312      C1313   1.411       .  A
C1313      C1314   1.399       .  A
C1313      H1320   1.082       .  S
C1314      S1316   1.803       .  S
S1315      H1318   1.403       .  S
S1316      H1317   1.403       .  S
O1321     Zr1333   2.523       .  S
O1321      C1323   1.305       .  A
O1322     Zr2019   2.359   1_554  S
O1322      C1323   1.272       .  A
C1323      C1921   1.498       .  S
O1324     Zr1336   2.453       .  S
O1324      C1326   1.286       .  A
O1325     Zr1360   2.438   1_554  S
O1325      C1326   1.286       .  A
C1326      C1945   1.479       .  S
O1327     Zr1336   2.414       .  S
O1327      C1329   1.280       .  A
O1328     Zr2019   2.465   1_554  S
O1328      C1329   1.292       .  A
C1329      C1972   1.490       .  S
O1330     Zr1333   2.511       .  S
O1330      C1332   1.302       .  A
O1331     Zr1360   2.345   1_554  S
O1331      C1332   1.273       .  A
C1332      C1912   1.480       .  S
Zr1333     O1334   2.434       .  S
Zr1333     O1335   2.437       .  S
Zr1333     O1339   2.275       .  S
Zr1333     O1340   2.354       .  S
Zr1333     O2023   2.379   1_554  S
Zr1333     O2025   2.359   1_554  S
O1334      H1377   0.990       .  S
O1335      H1376   0.990       .  S
O1335      H1380   0.990       .  S
Zr1336     O1337   2.434       .  S
Zr1336     O1338   2.429   1_454  S
Zr1336     O1339   2.277       .  S
Zr1336     O1340   2.358       .  S
Zr1336     O1364   2.400   1_554  S
Zr1336     O1366   2.376   1_554  S
O1337      H1378   0.991       .  S
O1337      H1381   0.990       .  S
O1338      H1371   0.990   1_556  S
O1339     Zr2019   2.239   1_554  S
O1340     Zr1360   2.370   1_554  S
O1340      H1367   0.953       .  S
O1341     Zr1353   2.506       .  S
O1341      C1343   1.292       .  A
O1342     Zr2020   2.380       .  S
O1342      C1343   1.265       .  A
C1343      C1885   1.501       .  S
O1344     Zr1356   2.432       .  S
O1344      C1346   1.286       .  A
O1345     Zr1359   2.437       .  S
O1345      C1346   1.288       .  A
C1346      C1957   1.497       .  S
O1347     Zr1356   2.444       .  S
O1347      C1349   1.289       .  A
O1348     Zr2020   2.433       .  S
O1348      C1349   1.287       .  A
C1349      C1933   1.465       .  S
O1350     Zr1353   2.498       .  S
O1350      C1352   1.299       .  A
O1351     Zr1359   2.382       .  S
O1351      C1352   1.278       .  A
C1352      C1897   1.474       .  S
Zr1353     O1354   2.436       .  S
Zr1353     O1355   2.434       .  S
Zr1353     O1361   2.370       .  S
Zr1353     O1362   2.372       .  S
Zr1353     O1365   2.381       .  S
Zr1353     O1363   2.380       .  S
O1354      H1374   0.990       .  S
O1354      H1379   0.990       .  S
O1355      H1375   0.990       .  S
Zr1356     O1357   2.437       .  S
Zr1356     O1358   2.434       .  S
Zr1356     O1362   2.369       .  S
Zr1356     O1361   2.371       .  S
Zr1356     O2026   2.384       .  S
Zr1356     O2024   2.393       .  S
O1357      H1373   0.990       .  S
O1358      H1372   0.990       .  S
O1358      H1382   0.990       .  S
Zr1359     O1982   2.346       .  S
Zr1359     O1988   2.490       .  S
Zr1359     O1999   2.339       .  S
Zr1359     O1362   2.367       .  S
Zr1359     O2024   2.386       .  S
Zr1359     O1365   2.402       .  S
Zr1360     O2002   2.337       .  S
Zr1360     O2008   2.445       .  S
Zr1360     O2021   2.362       .  S
Zr1360     O2023   2.404       .  S
Zr1360     O1366   2.366       .  S
O1361     Zr2020   2.385       .  S
O1361      H1369   0.961       .  S
O1363     Zr1993   2.367       .  S
O1363     Zr2020   2.397       .  S
O1364     Zr2016   2.396       .  S
O1364     Zr2019   2.385       .  S
O1364      H1368   0.966       .  S
O1365     Zr1993   2.371       .  S
O1365      H1370   0.965       .  S
O1366     Zr2016   2.390       .  S
O1383     Zr1395   2.395       .  S
O1383      C1385   1.278       .  A
O1384     Zr2081   2.506   1_554  S
O1384      C1385   1.299       .  A
C1385      C1873   1.479       .  S
O1386     Zr1398   2.547       .  S
O1386      C1388   1.309       .  A
O1387     Zr2082   2.351   1_554  S
O1387      C1388   1.275       .  A
C1388      C1789   1.502       .  S
O1389     Zr1398   2.580       .  S
O1389      C1391   1.316       .  A
O1390     Zr1421   2.331       .  S
O1390      C2051   1.271       .  A
C1391      O2050   1.267       .  A
C1391      C1804   1.497       .  S
O1392     Zr1395   2.446       .  S
O1392      C1394   1.281       .  A
O1393     Zr2082   2.474   1_554  S
O1393      C1394   1.288       .  A
C1394      C1849   1.513       .  S
Zr1395     O1396   2.445       .  S
Zr1395     O1397   2.449       .  S
Zr1395     O1401   2.371       .  S
Zr1395     O1402   2.395       .  S
Zr1395     O2085   2.367   1_554  S
Zr1395     O2087   2.395   1_554  S
O1396      H1439   0.989       .  S
O1397      H1438   0.988       .  S
O1397      H1442   0.989   1_554  S
Zr1398     O1399   2.437       .  S
Zr1398     O1400   2.433       .  S
Zr1398     O1402   2.373       .  S
Zr1398     O1401   2.359       .  S
Zr1398     O2086   2.356       .  S
Zr1398     O2088   2.386       .  S
O1399      H1440   0.990       .  S
O1399      H1443   0.989       .  S
O1400      H1433   0.990       .  S
O1401     Zr2081   2.338   1_554  S
O1402     Zr2082   2.383   1_554  S
O1402      H1429   0.957       .  S
O1403     Zr1415   2.427       .  S
O1403      C1405   1.279       .  A
O1404     Zr1422   2.474       .  S
O1404      C1405   1.291       .  A
C1405      C1837   1.494       .  S
O1406     Zr1418   2.547       .  S
O1406      C1408   1.304       .  A
O1407     Zr1421   2.360       .  S
O1407      C1408   1.260       .  A
C1408      C1828   1.509       .  S
O1409     Zr1418   2.540       .  S
O1409      C1411   1.307       .  A
O1410     Zr1422   2.340       .  S
O1410      C1411   1.272       .  A
C1411      C1813   1.486       .  S
O1412     Zr1415   2.383       .  S
O1412      C1414   1.275       .  A
O1413     Zr1421   2.473       .  S
O1413      C1414   1.293       .  A
C1414      C1861   1.476       .  S
Zr1415     O1416   2.442       .  S
Zr1415     O1417   2.436       .  S
Zr1415     O1424   2.273       .  S
Zr1415     O1423   2.371       .  S
Zr1415     O1427   2.385       .  S
Zr1415     O1425   2.382       .  S
O1416      H1436   0.990       .  S
O1416      H1441   0.990       .  S
O1417      H1437   0.990       .  S
Zr1418     O1419   2.435       .  S
Zr1418     O1420   2.435       .  S
Zr1418     O1424   2.275       .  S
Zr1418     O1423   2.368       .  S
Zr1418     O1428   2.374       .  S
Zr1418     O1426   2.371       .  S
O1419      H1435   0.990       .  S
O1420      H1434   0.990       .  S
O1420      H1444   0.990       .  S
Zr1421     O2044   2.487       .  S
Zr1421     O1424   2.253       .  S
Zr1421     O2061   2.339       .  S
Zr1421     O1426   2.415       .  S
Zr1421     O1427   2.376       .  S
Zr1422     O2047   2.357       .  S
Zr1422     O2053   2.478       .  S
Zr1422     O2062   2.382       .  S
Zr1422     O1423   2.395       .  S
Zr1422     O1425   2.384       .  S
Zr1422     O1428   2.415       .  S
O1423      H1431   0.962       .  S
O1425     Zr2055   2.382       .  S
O1426     Zr2058   2.363       .  S
O1426      H1430   0.966       .  S
O1427     Zr2055   2.390       .  S
O1427      H1432   0.965       .  S
O1428     Zr2058   2.387       .  S
O1445     Zr1457   2.547       .  S
O1445      C1447   1.302       .  A
O1446      C1447   1.259       .  A
C1447      C1777   1.508       .  S
O1448     Zr1460   2.447       .  S
O1448      C1450   1.288       .  A
O1449     Zr1484   2.503       .  S
O1449      C1450   1.301       .  A
C1450      C1801   1.514       .  S
O1451     Zr1460   2.384       .  S
O1451      C1453   1.273       .  A
O1452      C1453   1.296       .  A
C1453      C1924   1.485       .  S
O1454     Zr1457   2.545       .  S
O1454      C1456   1.304       .  A
O1455     Zr1484   2.357       .  S
O1455      C1456   1.260       .  A
C1456      C1768   1.499       .  S
Zr1457     O1458   2.435       .  S
Zr1457     O1459   2.435       .  S
Zr1457     O1463   2.285       .  S
Zr1457     O1464   2.357       .  S
Zr1457     O1487   2.385       .  S
O1458      H1501   0.990       .  S
O1459      H1500   0.990       .  S
O1459      H1504   0.990       .  S
Zr1460     O1461   2.443       .  S
Zr1460     O1462   2.428       .  S
Zr1460     O1463   2.279       .  S
Zr1460     O1464   2.362       .  S
Zr1460     O1488   2.382       .  S
Zr1460     O1490   2.380       .  S
O1461      H1502   0.990       .  S
O1461      H1505   0.990       .  S
O1462      H1495   0.990       .  S
O1464     Zr1484   2.398       .  S
O1464      H1491   0.959       .  S
O1465     Zr1477   2.536       .  S
O1465      C1467   1.307       .  A
O1466      C1467   1.273       .  A
C1467      C1741   1.482       .  S
O1468     Zr1480   2.377       .  S
O1468      C1470   1.275       .  A
O1469     Zr1483   2.471       .  S
O1469      C1470   1.294       .  A
C1470      C1909   1.494       .  S
O1471     Zr1480   2.382       .  S
O1471      C1473   1.274       .  A
O1472      C1473   1.298       .  A
C1473      C1792   1.479       .  S
O1474     Zr1477   2.546       .  S
O1474      C1476   1.309       .  A
O1475     Zr1483   2.372       .  S
O1475      C1476   1.276       .  A
C1476      C1753   1.491       .  S
Zr1477     O1478   2.435       .  S
Zr1477     O1479   2.436       .  S
Zr1477     O1485   2.382       .  S
Zr1477     O1486   2.365       .  S
Zr1477     O1489   2.372       .  S
O1478      H1498   0.990       .  S
O1478      H1503   0.990       .  S
O1479      H1499   0.990       .  S
Zr1480     O1481   2.438       .  S
Zr1480     O1482   2.421       .  S
Zr1480     O1486   2.366       .  S
Zr1480     O1485   2.354       .  S
O1481      H1497   0.991       .  S
O1482      H1496   0.990       .  S
O1482      H1506   0.988       .  S
Zr1483     O1486   2.370       .  S
Zr1483     O1489   2.411       .  S
Zr1484     O1487   2.418       .  S
Zr1484     O1490   2.385       .  S
O1485      H1493   0.964       .  S
O1488      H1492   0.965       .  S
O1489      H1494   0.965       .  S
O1507     Zr1519   2.388       .  S
O1507      C1509   1.275       .  A
O1508      C1509   1.295       .  A
C1509      C1900   1.474       .  S
O1510     Zr1522   2.557       .  S
O1510      C1512   1.310       .  A
O1511      C1512   1.269       .  A
C1512      C1720   1.500       .  S
O1513     Zr1522   2.530       .  S
O1513      C1515   1.306       .  A
O1514      C1515   1.279       .  A
C1515      C1732   1.505       .  S
O1516     Zr1519   2.386       .  S
O1516      C1518   1.275       .  A
O1517      C1518   1.299       .  A
C1518      C1825   1.479       .  S
Zr1519     O1520   2.437       .  S
Zr1519     O1521   2.433       .  S
Zr1519     O1525   2.371       .  S
Zr1519     O1526   2.378       .  S
O1520      H1563   0.991       .  S
O1521      H1562   0.990       .  S
O1521      H1566   0.990       .  S
Zr1522     O1523   2.435       .  S
Zr1522     O1524   2.433       .  S
Zr1522     O1526   2.365       .  S
Zr1522     O1525   2.392       .  S
O1523      H1564   0.990       .  S
O1523      H1567   0.990       .  S
O1524      H1557   0.990       .  S
O1526      H1553   0.962       .  S
O1527     Zr1539   2.419       .  S
O1527      C1529   1.279       .  A
O1528     Zr1546   2.480       .  S
O1528      C1529   1.293       .  A
C1529      C1816   1.499       .  S
O1530     Zr1542   2.558       .  S
O1530      C1532   1.312       .  A
O1531     Zr1545   2.368       .  S
O1531      C1532   1.276       .  A
C1532      C1705   1.503       .  S
O1533     Zr1542   2.572       .  S
O1533      C1535   1.315       .  A
O1534     Zr1546   2.344       .  S
O1534      C1535   1.274       .  A
C1535      C1693   1.505       .  S
O1536     Zr1539   2.393       .  S
O1536      C1538   1.275       .  A
O1537     Zr1545   2.472       .  S
O1537      C1538   1.293       .  A
C1538      C1888   1.481       .  S
Zr1539     O1540   2.453       .  S
Zr1539     O1541   2.429       .  S
Zr1539     O1548   2.281       .  S
Zr1539     O1547   2.368       .  S
Zr1539     O1551   2.385       .  S
Zr1539     O1549   2.371       .  S
O1540      H1560   0.988       .  S
O1540      H1565   0.990       .  S
O1541      H1561   0.990       .  S
Zr1542     O1543   2.434       .  S
Zr1542     O1544   2.436       .  S
Zr1542     O1548   2.288       .  S
Zr1542     O1547   2.353       .  S
Zr1542     O1552   2.374       .  S
Zr1542     O1550   2.362       .  S
O1543      H1559   0.990       .  S
O1544      H1558   0.990       .  S
O1544      H1568   0.990       .  S
Zr1545     O1548   2.258       .  S
Zr1545     O1550   2.414       .  S
Zr1545     O1551   2.377       .  S
Zr1546     O1547   2.386       .  S
Zr1546     O1549   2.364       .  S
Zr1546     O1552   2.415       .  S
O1547      H1555   0.961       .  S
O1550      H1554   0.964       .  S
O1551      H1556   0.964   1_565  S
O1569     Zr4221   2.561   1_455  S
O1569      C1571   1.312       .  A
O1570     Zr1607   2.322       .  S
O1570      C1571   1.271       .  A
C1571      C1780   1.491       .  S
O1572     Zr1584   2.421       .  S
O1572      C1574   1.273       .  A
O1573     Zr1608   2.478       .  S
O1573      C1574   1.286       .  A
C1574      C1876   1.500       .  S
O1575     Zr4224   2.423   1_455  S
O1575      C1577   1.283       .  A
O1576     Zr1607   2.502       .  S
O1576      C1577   1.299       .  A
C1577      C1969   1.487       .  S
O1578     Zr1581   2.551       .  S
O1578      C1580   1.311       .  A
O1579     Zr1608   2.339       .  S
O1579      C1580   1.268       .  A
C1580      C1765   1.504       .  S
Zr1581     O4209   2.540       .  S
Zr1581     O1582   2.429       .  S
Zr1581     O1583   2.436       .  S
Zr1581     O4227   2.372       .  S
Zr1581     O1588   2.361       .  S
Zr1581     O1611   2.362       .  S
Zr1581     O4253   2.372       .  S
O1582      H4265   0.988       .  S
O1583      H4264   0.990       .  S
O1583      H1628   0.990       .  S
Zr1584     O4215   2.422       .  S
Zr1584     O1585   2.446       .  S
Zr1584     O1586   2.437       .  S
Zr1584     O1588   2.396       .  S
Zr1584     O4227   2.365       .  S
Zr1584     O4252   2.376       .  S
Zr1584     O1614   2.399       .  S
O1585      H1626   0.990       .  S
O1585      H1629   0.990       .  S
O1586      H1619   0.991       .  S
O1587     Zr4221   2.354   1_455  S
O1587     Zr4224   2.359   1_455  S
O1587     Zr1607   2.341       .  S
O1588     Zr1608   2.361       .  S
O1588      H1615   0.953       .  S
O1589     Zr1601   2.545       .  S
O1589      C1591   1.309       .  A
O1590     Zr1608   2.340       .  S
O1590      C1591   1.270       .  A
C1591      C1717   1.483       .  S
O1592     Zr4244   2.412   1_455  S
O1592      C1594   1.272       .  A
O1593     Zr1607   2.458       .  S
O1593      C1594   1.285       .  A
C1594      C1960   1.483       .  S
O1595     Zr1604   2.396       .  S
O1595      C1597   1.277       .  A
O1596     Zr1608   2.454       .  S
O1596      C1597   1.291       .  A
C1597      C1864   1.468       .  S
O1598     Zr4241   2.525   1_455  S
O1598      C1600   1.306       .  A
O1599     Zr1607   2.377       .  S
O1599      C1600   1.278       .  A
C1600      C1729   1.493       .  S
Zr1601     O4238   2.541       .  S
Zr1601     O1602   2.434       .  S
Zr1601     O1603   2.432       .  S
Zr1601     O1609   2.375       .  S
Zr1601     O4250   2.362       .  S
Zr1601     O4253   2.369       .  S
Zr1601     O1611   2.367       .  S
O1602      H1622   0.990       .  S
O1602      H1627   0.990       .  S
O1603      H1623   0.990       .  S
Zr1604     O4232   2.402       .  S
Zr1604     O1605   2.433       .  S
Zr1604     O1606   2.438       .  S
Zr1604     O4250   2.358       .  S
Zr1604     O1609   2.380       .  S
Zr1604     O1614   2.386       .  S
Zr1604     O4252   2.391       .  S
O1605      H1621   0.990       .  S
O1606      H1620   0.990       .  S
O1606      H1630   0.990       .  S
Zr1607     O1610   2.377       .  S
Zr1607     O1612   2.384       .  S
Zr1607     O1613   2.414       .  S
Zr1608     O1609   2.377       .  S
Zr1608     O1611   2.404       .  S
Zr1608     O1614   2.376       .  S
O1609      H1617   0.964       .  S
O1610     Zr4241   2.367   1_455  S
O1610     Zr4244   2.361   1_455  S
O1612     Zr4224   2.384   1_455  S
O1612     Zr4244   2.396   1_455  S
O1612      H1616   0.965       .  S
O1613     Zr4221   2.374   1_455  S
O1613     Zr4241   2.372   1_455  S
O1613      H1618   0.966       .  S
H1624      O4223   0.990       .  S
H1625      O4222   0.990       .  S
O1631     Zr4283   2.380   1_455  S
O1631      C1633   1.276       .  A
O1632     Zr1669   2.499       .  S
O1632      C1633   1.299       .  A
C1633      C1948   1.472       .  S
O1634     Zr1646   2.533       .  S
O1634      C1636   1.307       .  A
O1635     Zr1670   2.344       .  S
O1635      C1636   1.272       .  A
C1636      C1744   1.493       .  S
O1637     Zr4286   2.556   1_455  S
O1637      C1639   1.310       .  A
O1638     Zr1669   2.340       .  S
O1638      C1639   1.270       .  A
C1639      C1756   1.492       .  S
O1640     Zr1643   2.402       .  S
O1640      C1642   1.269       .  A
O1641     Zr1670   2.480       .  S
O1641      C1642   1.285       .  A
C1642      C1852   1.499       .  S
Zr1643     O4271   2.382       .  S
Zr1643     O1644   2.437       .  S
Zr1643     O1645   2.438       .  S
Zr1643     O4289   2.272       .  S
Zr1643     O1650   2.390       .  S
Zr1643     O1673   2.384       .  S
Zr1643     O4315   2.380       .  S
O1644      H4327   0.990       .  S
O1645      H1686   0.990       .  S
O1645      H1690   0.990       .  S
Zr1646     O4277   2.547       .  S
Zr1646     O1647   2.435       .  S
Zr1646     O1648   2.435       .  S
Zr1646     O4289   2.277       .  S
Zr1646     O1650   2.379       .  S
Zr1646     O4314   2.376       .  S
Zr1646     O1676   2.375       .  S
O1647      H1688   0.990       .  S
O1647      H1691   0.990       .  S
O1648      H4321   0.990       .  S
O1649     Zr4283   2.367   1_455  S
O1649     Zr4286   2.349   1_455  S
O1649     Zr1669   2.338       .  S
O1650     Zr1670   2.408       .  S
O1650      H1677   0.962       .  S
O1651     Zr1663   2.440       .  S
O1651      C1653   1.280       .  A
O1652     Zr1670   2.479       .  S
O1652      C1653   1.292       .  A
C1653      C1840   1.501       .  S
O1654     Zr4306   2.550   1_455  S
O1654      C1656   1.310       .  A
O1655     Zr1669   2.367       .  S
O1655      C1656   1.274       .  A
C1656      C1708   1.510       .  S
O1657     Zr1666   2.554       .  S
O1657      C1659   1.312       .  A
O1658     Zr1670   2.371       .  S
O1658      C1659   1.277       .  A
C1659      C1696   1.504       .  S
O1660     Zr4303   2.392   1_455  S
O1660      C1662   1.279       .  A
O1661     Zr1669   2.455       .  S
O1661      C1662   1.289       .  A
C1662      C1936   1.477       .  S
Zr1663     O4300   2.404       .  S
Zr1663     O1664   2.445       .  S
Zr1663     O1665   2.433       .  S
Zr1663     O1671   2.396       .  S
Zr1663     O4312   2.376       .  S
Zr1663     O4315   2.392       .  S
Zr1663     O1673   2.367       .  S
O1664      H1684   0.990       .  S
O1664      H1689   0.990       .  S
O1665      H1685   0.990       .  S
Zr1666     O4294   2.563       .  S
Zr1666     O1667   2.437       .  S
Zr1666     O1668   2.435       .  S
Zr1666     O4312   2.366       .  S
Zr1666     O1671   2.377       .  S
Zr1666     O1676   2.375       .  S
Zr1666     O4314   2.372       .  S
O1667      H1683   0.990       .  S
O1668      H1682   0.990       .  S
O1668      H1692   0.990       .  S
Zr1669     O1672   2.245       .  S
Zr1669     O1674   2.409       .  S
Zr1669     O1675   2.386       .  S
Zr1670     O1671   2.387       .  S
Zr1670     O1673   2.384       .  S
Zr1670     O1676   2.413       .  S
O1671      H1679   0.960       .  S
O1672     Zr4303   2.276   1_455  S
O1672     Zr4306   2.281   1_455  S
O1674     Zr4286   2.380   1_455  S
O1674     Zr4306   2.373   1_455  S
O1674      H1678   0.966       .  S
O1675     Zr4283   2.391   1_455  S
O1675     Zr4303   2.383   1_455  S
O1675      H1680   0.966       .  S
H1681      O4288   0.989       .  S
H1687      O4284   0.990       .  S
C1693      C1694   1.418       .  A
C1693      C1698   1.413       .  A
C1694      C1695   1.411       .  A
C1694      H1703   1.084       .  S
C1695      C1696   1.407       .  A
C1695      S1699   1.802       .  S
C1696      C1697   1.417       .  A
C1697      C1698   1.414       .  A
C1697      H1704   1.083       .  S
C1698      S1700   1.802       .  S
S1699      H1702   1.404       .  S
S1700      H1701   1.404       .  S
C1705      C1706   1.397       .  A
C1705      C1710   1.425       .  A
C1706      C1707   1.410       .  A
C1706      H1715   1.083       .  S
C1707      C1708   1.429       .  A
C1707      S1711   1.803       .  S
C1708      C1709   1.399       .  A
C1709      C1710   1.412       .  A
C1709      H1716   1.080       .  S
C1710      S1712   1.801       .  S
S1711      H1714   1.406       .  S
S1712      H1713   1.406       .  S
C1717      C1718   1.420       .  A
C1717      C1722   1.401       .  A
C1718      C1719   1.417       .  A
C1718      H1727   1.084       .  S
C1719      C1720   1.413       .  A
C1719      S1723   1.801       .  S
C1720      C1721   1.417       .  A
C1721      C1722   1.393       .  A
C1721      H1728   1.084       .  S
C1722      S1724   1.796       .  S
S1723      H1726   1.405       .  S
S1724      H1725   1.405       .  S
C1729      C1730   1.415       .  A
C1729      C1734   1.406       .  A
C1730      C1731   1.415       .  A
C1730      H1739   1.083       .  S
C1731      C1732   1.413       .  A
C1732      C1733   1.415       .  A
C1733      C1734   1.403       .  A
C1733      H1740   1.082       .  S
C1734      S1736   1.806       .  S
S1735      H1738   1.407       .  S
S1736      H1737   1.406       .  S
C1741      C1742   1.416       .  A
C1741      C1746   1.406       .  A
C1742      C1743   1.404       .  A
C1742      H1751   1.084       .  S
C1743      C1744   1.409       .  A
C1743      S1747   1.802       .  S
C1744      C1745   1.418       .  A
C1745      C1746   1.402       .  A
C1745      H1752   1.084       .  S
C1746      S1748   1.803       .  S
S1747      H1750   1.404       .  S
S1748      H1749   1.404       .  S
C1753      C1754   1.414       .  A
C1753      C1758   1.407       .  A
C1754      C1755   1.415       .  A
C1754      H1763   1.084       .  S
C1755      C1756   1.415       .  A
C1755      S1759   1.803       .  S
C1756      C1757   1.411       .  A
C1757      C1758   1.403       .  A
C1757      H1764   1.076       .  S
C1758      S1760   1.800       .  S
S1759      H1762   1.405       .  S
S1760      H1761   1.403       .  S
C1765      C1766   1.395       .  A
C1765      C1770   1.438       .  A
C1766      C1767   1.407       .  A
C1766      H1775   1.082       .  S
C1767      C1768   1.435       .  A
C1767      S1771   1.813       .  S
C1768      C1769   1.390       .  A
C1769      C1770   1.404       .  A
C1769      H1776   1.082       .  S
C1770      S1772   1.810       .  S
S1771      H1774   1.406       .  S
S1772      H1773   1.406       .  S
C1777      C1778   1.425       .  A
C1777      C1782   1.407       .  A
C1778      C1779   1.401       .  A
C1778      H1787   1.083       .  S
C1779      C1780   1.399       .  A
C1779      S1783   1.800       .  S
C1780      C1781   1.422       .  A
C1781      C1782   1.408       .  A
C1781      H1788   1.080       .  S
C1782      S1784   1.798       .  S
S1783      H1786   1.406       .  S
S1784      H1785   1.407       .  S
C1789      C1790   1.414       .  A
C1789      C1794   1.416       .  A
C1790      C1791   1.395       .  A
C1790      H1799   1.084       .  S
C1791      C1792   1.408       .  A
C1791      S1795   1.805       .  S
C1792      C1793   1.412       .  A
C1793      C1794   1.417       .  A
C1793      H1800   1.081       .  S
C1794      S1796   1.799       .  S
S1795      H1798   1.407       .  S
S1796      H1797   1.403       .  S
C1801      C1802   1.420       .  A
C1801      C1806   1.411       .  A
C1802      C1803   1.409       .  A
C1802      H1811   1.082       .  S
C1803      C1804   1.407       .  A
C1803      S1807   1.800       .  S
C1804      C1805   1.420       .  A
C1805      C1806   1.411       .  A
C1805      H1812   1.084       .  S
C1806      S1808   1.798       .  S
S1807      H1810   1.406       .  S
S1808      H1809   1.407       .  S
C1813      C1814   1.418       .  A
C1813      C1818   1.402       .  A
C1814      C1815   1.409       .  A
C1814      H1823   1.084       .  S
C1815      C1816   1.408       .  A
C1815      S1819   1.800       .  S
C1816      C1817   1.418       .  A
C1817      C1818   1.404       .  A
C1817      H1824   1.081       .  S
C1818      S1820   1.807       .  S
S1819      H1822   1.406       .  S
S1820      H1821   1.407       .  S
C1825      C1826   1.389       .  A
C1825      C1830   1.420       .  A
C1826      C1827   1.404       .  A
C1826      H1835   1.083       .  S
C1827      C1828   1.441       .  A
C1827      S1831   1.815       .  S
C1828      C1829   1.401       .  A
C1829      C1830   1.408       .  A
C1829      H1836   1.083       .  S
C1830      S1832   1.800       .  S
S1831      H1834   1.407       .  S
S1832      H1833   1.404       .  S
C1837      C1838   1.415       .  A
C1837      C1842   1.407       .  A
C1838      C1839   1.415       .  A
C1838      H1847   1.082       .  S
C1839      C1840   1.414       .  A
C1839      S1843   1.802       .  S
C1840      C1841   1.412       .  A
C1841      C1842   1.400       .  A
C1841      H1848   1.083       .  S
C1842      S1844   1.801       .  S
S1843      H1846   1.405       .  S
S1844      H1845   1.407       .  S
C1849      C1850   1.409       .  A
C1849      C1854   1.419       .  A
C1850      C1851   1.399       .  A
C1850      H1859   1.077       .  S
C1851      C1852   1.411       .  A
C1851      S1855   1.805       .  S
C1852      C1853   1.414       .  A
C1853      C1854   1.419       .  A
C1853      H1860   1.083       .  S
C1854      S1856   1.800       .  S
S1855      H1858   1.407       .  S
S1856      H1857   1.406       .  S
C1861      C1862   1.397       .  A
C1861      C1866   1.424       .  A
C1862      C1863   1.404       .  A
C1862      H1871   1.083       .  S
C1863      C1864   1.422       .  A
C1863      S1867   1.808       .  S
C1864      C1865   1.385       .  A
C1865      C1866   1.393       .  A
C1865      H1872   1.083       .  S
C1866      S1868   1.802       .  S
S1867      H1870   1.407       .  S
S1868      H1869   1.406       .  S
C1873      C1874   1.412       .  A
C1873      C1878   1.404       .  A
C1874      C1875   1.414       .  A
C1874      H1883   1.078       .  S
C1875      C1876   1.408       .  A
C1875      S1879   1.803       .  S
C1876      C1877   1.410       .  A
C1877      C1878   1.399       .  A
C1877      H1884   1.079       .  S
C1878      S1880   1.807       .  S
S1879      H1882   1.407       .  S
S1880      H1881   1.407       .  S
C1885      C1886   1.420       .  A
C1885      C1890   1.410       .  A
C1886      C1887   1.401       .  A
C1886      H1895   1.083       .  S
C1887      C1888   1.405       .  A
C1887      S1891   1.802       .  S
C1888      C1889   1.411       .  A
C1889      C1890   1.407       .  A
C1889      H1896   1.082       .  S
C1890      S1892   1.806       .  S
S1891      H1894   1.403       .  S
S1892      H1893   1.406       .  S
C1897      C1898   1.403       .  A
C1897      C1902   1.412       .  A
C1898      C1899   1.407       .  A
C1898      H1907   1.084       .  S
C1899      C1900   1.419       .  A
C1899      S1903   1.801       .  S
C1900      C1901   1.402       .  A
C1901      C1902   1.398       .  A
C1901      H1908   1.084       .  S
C1902      S1904   1.803       .  S
S1903      H1906   1.403       .  S
S1904      H1905   1.406       .  S
C1909      C1910   1.422       .  A
C1909      C1914   1.406       .  A
C1910      C1911   1.400       .  A
C1910      H1919   1.081       .  S
C1911      C1912   1.399       .  A
C1911      S1915   1.806       .  S
C1912      C1913   1.416       .  A
C1913      C1914   1.398       .  A
C1913      H1920   1.082       .  S
C1914      S1916   1.799       .  S
S1915      H1918   1.407       .  S
S1916      H1917   1.407       .  S
C1921      C1922   1.396       .  A
C1921      C1926   1.434       .  A
C1922      C1923   1.403       .  A
C1922      H1931   1.082       .  S
C1923      C1924   1.424       .  A
C1923      S1927   1.810       .  S
C1924      C1925   1.391       .  A
C1925      C1926   1.406       .  A
C1925      H1932   1.083       .  S
C1926      S1928   1.807       .  S
S1927      H1930   1.406       .  S
S1928      H1929   1.407       .  S
C1933      C1934   1.413       .  A
C1933      C1938   1.397       .  A
C1934      C1935   1.410       .  A
C1934      H1943   1.084       .  S
C1935      C1936   1.404       .  A
C1935      S1939   1.801       .  S
C1936      C1937   1.409       .  A
C1937      C1938   1.390       .  A
C1937      H1944   1.082       .  S
C1938      S1940   1.801       .  S
S1939      H1942   1.408       .  S
S1940      H1941   1.407       .  S
C1945      C1946   1.413       .  A
C1945      C1950   1.404       .  A
C1946      C1947   1.398       .  A
C1946      H1955   1.074       .  S
C1947      C1948   1.396       .  A
C1947      S1951   1.805       .  S
C1948      C1949   1.415       .  A
C1949      C1950   1.403       .  A
C1949      H1956   1.084       .  S
C1950      S1952   1.802       .  S
S1951      H1954   1.407       .  S
S1952      H1953   1.406       .  S
C1957      C1958   1.415       .  A
C1957      C1962   1.415       .  A
C1958      C1959   1.398       .  A
C1958      H1967   1.083       .  S
C1959      C1960   1.404       .  A
C1959      S1963   1.799       .  S
C1960      C1961   1.410       .  A
C1961      C1962   1.404       .  A
C1961      H1968   1.078       .  S
C1962      S1964   1.808       .  S
S1963      H1966   1.407       .  S
S1964      H1965   1.407       .  S
C1969      C1970   1.414       .  A
C1969      C1974   1.404       .  A
C1970      C1971   1.410       .  A
C1970      H1979   1.082       .  S
C1971      C1972   1.413       .  A
C1971      S1975   1.807       .  S
C1972      C1973   1.412       .  A
C1973      C1974   1.401       .  A
C1973      H1980   1.084       .  S
C1974      S1976   1.800       .  S
S1975      H1978   1.399       .  S
S1976      H1977   1.404       .  S
O1981     Zr1993   2.521       .  S
O1981      C1983   1.304       .  A
O1982      C1983   1.271       .  A
C1983      C2581   1.491       .  S
O1984     Zr1996   2.436       .  S
O1984      C1986   1.284       .  A
O1985     Zr2020   2.468       .  S
O1985      C1986   1.294       .  A
C1986      C2605   1.483       .  S
O1987     Zr1996   2.419       .  S
O1987      C1989   1.281       .  A
O1988      C1989   1.296       .  A
C1989      C2632   1.490       .  S
O1990     Zr1993   2.531       .  S
O1990      C1992   1.305       .  A
O1991     Zr2020   2.326       .  S
O1991      C1992   1.273       .  A
C1992      C2572   1.480       .  S
Zr1993     O1994   2.433       .  S
Zr1993     O1995   2.436       .  S
Zr1993     O1999   2.363       .  S
Zr1993     O2000   2.358       .  S
O1994      H2037   0.990       .  S
O1995      H2036   0.990       .  S
O1995      H2040   0.990       .  S
Zr1996     O1997   2.436   1_455  S
Zr1996     O1998   2.432   1_455  S
Zr1996     O2000   2.368       .  S
Zr1996     O1999   2.370       .  S
Zr1996     O2024   2.384       .  S
Zr1996     O2026   2.372       .  S
O1997      H2038   0.990   1_655  S
O1997      H2041   0.990       .  S
O1998      H2031   0.990       .  S
O2000     Zr2020   2.357       .  S
O2000      H2027   0.954       .  S
O2001     Zr2013   2.539       .  S
O2001      C2003   1.306       .  A
O2002      C2003   1.271       .  A
C2003      C2545   1.489       .  S
O2004     Zr2016   2.419       .  S
O2004      C2006   1.283       .  A
O2005     Zr2019   2.450       .  S
O2005      C2006   1.288       .  A
C2006      C2617   1.491       .  S
O2007     Zr2016   2.422       .  S
O2007      C2009   1.284       .  A
O2008      C2009   1.287       .  A
C2009      C2593   1.469       .  S
O2010     Zr2013   2.495       .  S
O2010      C2012   1.298       .  A
O2011     Zr2019   2.366       .  S
O2011      C2012   1.275       .  A
C2012      C2557   1.468       .  S
Zr2013     O2014   2.438       .  S
Zr2013     O2015   2.434       .  S
Zr2013     O2021   2.358       .  S
Zr2013     O2022   2.383       .  S
Zr2013     O2025   2.387       .  S
Zr2013     O2023   2.371       .  S
O2014      H2034   0.990       .  S
O2014      H2039   0.990       .  S
O2015      H2035   0.990       .  S
Zr2016     O2017   2.442       .  S
Zr2016     O2018   2.436       .  S
Zr2016     O2022   2.370       .  S
Zr2016     O2021   2.386       .  S
O2017      H2033   0.989       .  S
O2018      H2032   0.990   1_455  S
O2018      H2042   0.990   1_455  S
Zr2019     O2022   2.359       .  S
Zr2019     O2025   2.405       .  S
Zr2020     O2026   2.374       .  S
O2021      H2029   0.961       .  S
O2024      H2028   0.966       .  S
O2025      H2030   0.965       .  S
O2043     Zr2055   2.389       .  S
O2043      C2045   1.279       .  A
O2044      C2045   1.295       .  A
C2045      C2533   1.467       .  S
O2046     Zr2058   2.541       .  S
O2046      C2048   1.308       .  A
O2047      C2048   1.275       .  A
C2048      C2449   1.509       .  S
O2049     Zr2058   2.574       .  S
O2049      C2051   1.314       .  A
O2050     Zr2081   2.309   1_554  S
C2051      C2464   1.508       .  S
O2052     Zr2055   2.437       .  S
O2052      C2054   1.278       .  A
O2053      C2054   1.288       .  A
C2054      C2509   1.505       .  S
Zr2055     O2056   2.446       .  S
Zr2055     O2057   2.443       .  S
Zr2055     O2061   2.372       .  S
Zr2055     O2062   2.398       .  S
O2056      H2099   0.989       .  S
O2057      H2098   0.990       .  S
O2057      H2102   0.985       .  S
Zr2058     O2059   2.437       .  S
Zr2058     O2060   2.433       .  S
Zr2058     O2062   2.378       .  S
Zr2058     O2061   2.356       .  S
O2059      H2100   0.990       .  S
O2059      H2103   0.990       .  S
O2060      H2093   0.990       .  S
O2062      H2089   0.959       .  S
O2063     Zr2075   2.405       .  S
O2063      C2065   1.272       .  A
O2064     Zr2082   2.487       .  S
O2064      C2065   1.290       .  A
C2065      C2497   1.508       .  S
O2066     Zr2078   2.579       .  S
O2066      C2068   1.310       .  A
O2067     Zr2081   2.368       .  S
O2067      C2068   1.260       .  A
C2068      C2488   1.527       .  S
O2069     Zr2078   2.546       .  S
O2069      C2071   1.309       .  A
O2070     Zr2082   2.362       .  S
O2070      C2071   1.275       .  A
C2071      C2473   1.498       .  S
O2072     Zr2075   2.376       .  S
O2072      C2074   1.274       .  A
O2073     Zr2081   2.483       .  S
O2073      C2074   1.296       .  A
C2074      C2521   1.474       .  S
Zr2075     O2076   2.441       .  S
Zr2075     O2077   2.430       .  S
Zr2075     O2083   2.374       .  S
Zr2075     O2084   2.346       .  S
Zr2075     O2087   2.394       .  S
Zr2075     O2085   2.389       .  S
O2076      H2096   0.989       .  S
O2076      H2101   0.990       .  S
O2077      H2097   0.990       .  S
Zr2078     O2079   2.436       .  S
Zr2078     O2080   2.435       .  S
Zr2078     O2084   2.357       .  S
Zr2078     O2083   2.387       .  S
Zr2078     O2088   2.384   1_556  S
Zr2078     O2086   2.377   1_556  S
O2079      H2095   0.989       .  S
O2080      H2094   0.990       .  S
O2080      H2104   0.990       .  S
Zr2081     O2084   2.354       .  S
Zr2081     O2086   2.420   1_556  S
Zr2081     O2087   2.370       .  S
Zr2082     O2083   2.390       .  S
Zr2082     O2085   2.377       .  S
Zr2082     O2088   2.417   1_556  S
O2083      H2091   0.965       .  S
O2086      H2090   0.966       .  S
O2087      H2092   0.966       .  S
O2105     Zr2117   2.567       .  S
O2105      C2107   1.313       .  A
O2106      C2107   1.271       .  A
C2107      C2437   1.497       .  S
O2108     Zr2120   2.405       .  S
O2108      C2110   1.279       .  A
O2109     Zr2144   2.526       .  S
O2109      C2110   1.304       .  A
C2110      C2461   1.518       .  S
O2111     Zr2120   2.382       .  S
O2111      C2113   1.273       .  A
O2112      C2113   1.291       .  A
C2113      C2584   1.475       .  S
O2114     Zr2117   2.579       .  S
O2114      C2116   1.317       .  A
O2115     Zr2144   2.305       .  S
O2115      C2116   1.261       .  A
C2116      C2428   1.508       .  S
Zr2117     O2118   2.433       .  S
Zr2117     O2119   2.436       .  S
Zr2117     O2123   2.294       .  S
Zr2117     O2124   2.363       .  S
Zr2117     O2147   2.370       .  S
O2118      H2161   0.990       .  S
O2119      H2160   0.990       .  S
O2119      H2164   0.990       .  S
Zr2120     O2121   2.444       .  S
Zr2120     O2122   2.434       .  S
Zr2120     O2123   2.280       .  S
Zr2120     O2124   2.374       .  S
Zr2120     O2148   2.379       .  S
Zr2120     O2150   2.387       .  S
O2121      H2162   0.990       .  S
O2121      H2165   0.989       .  S
O2122      H2155   0.990       .  S
O2124     Zr2144   2.385       .  S
O2124      H2151   0.962       .  S
O2125     Zr2137   2.516       .  S
O2125      C2127   1.304       .  A
O2126      C2127   1.279       .  A
C2127      C2401   1.493       .  S
O2128     Zr2140   2.374       .  S
O2128      C2130   1.274       .  A
O2129     Zr2143   2.486       .  S
O2129      C2130   1.295       .  A
C2130      C2569   1.478       .  S
O2131     Zr2140   2.406       .  S
O2131      C2133   1.278       .  A
O2132      C2133   1.296       .  A
C2133      C2452   1.484       .  S
O2134     Zr2137   2.575       .  S
O2134      C2136   1.315       .  A
O2135     Zr2143   2.312       .  S
O2135      C2136   1.267       .  A
C2136      C2413   1.488       .  S
Zr2137     O2138   2.435       .  S
Zr2137     O2139   2.435       .  S
Zr2137     O2145   2.388       .  S
Zr2137     O2146   2.341       .  S
Zr2137     O2149   2.360       .  S
O2138      H2158   0.990       .  S
O2138      H2163   0.990       .  S
O2139      H2159   0.990       .  S
Zr2140     O2141   2.441       .  S
Zr2140     O2142   2.439       .  S
Zr2140     O2146   2.362       .  S
Zr2140     O2145   2.381       .  S
O2141      H2157   0.990       .  S
O2142      H2156   0.988       .  S
O2142      H2166   0.989       .  S
Zr2143     O2146   2.341       .  S
Zr2143     O2149   2.414       .  S
Zr2144     O2147   2.420       .  S
Zr2144     O2150   2.377       .  S
O2145      H2153   0.963       .  S
O2148      H2152   0.966       .  S
O2149      H2154   0.966       .  S
O2167     Zr2179   2.396       .  S
O2167      C2169   1.273       .  A
O2168      C2169   1.287       .  A
C2169      C2560   1.500       .  S
O2170     Zr2182   2.558       .  S
O2170      C2172   1.311       .  A
O2171      C2172   1.273       .  A
C2172      C2380   1.506       .  S
O2173     Zr2182   2.532       .  S
O2173      C2175   1.307       .  A
O2174      C2175   1.278       .  A
C2175      C2392   1.494       .  S
O2176     Zr2179   2.372       .  S
O2176      C2178   1.273       .  A
O2177      C2178   1.308       .  A
C2178      C2485   1.492       .  S
Zr2179     O2180   2.433       .  S
Zr2179     O2181   2.432       .  S
Zr2179     O2185   2.373       .  S
Zr2179     O2186   2.374       .  S
O2180      H2223   0.990       .  S
O2181      H2222   0.990       .  S
O2181      H2226   0.990       .  S
Zr2182     O2183   2.434       .  S
Zr2182     O2184   2.434       .  S
Zr2182     O2186   2.360       .  S
Zr2182     O2185   2.395       .  S
O2183      H2224   0.990       .  S
O2183      H2227   0.990       .  S
O2184      H2217   0.990       .  S
O2186      H2213   0.961       .  S
O2187     Zr2199   2.413       .  S
O2187      C2189   1.279       .  A
O2188     Zr2206   2.502       .  S
O2188      C2189   1.300       .  A
C2189      C2476   1.518       .  S
O2190     Zr2202   2.584       .  S
O2190      C2192   1.317       .  A
O2191     Zr2205   2.329       .  S
O2191      C2192   1.272       .  A
C2192      C2365   1.495       .  S
O2193     Zr2202   2.544       .  S
O2193      C2195   1.309       .  A
O2194     Zr2206   2.379       .  S
O2194      C2195   1.279       .  A
C2195      C2353   1.491       .  S
O2196     Zr2199   2.390       .  S
O2196      C2198   1.268       .  A
O2197     Zr2205   2.477       .  S
O2197      C2198   1.286       .  A
C2198      C2548   1.500       .  S
Zr2199     O2200   2.436       .  S
Zr2199     O2201   2.415       .  S
Zr2199     O2208   2.274       .  S
Zr2199     O2207   2.373       .  S
Zr2199     O2211   2.385   1_565  S
Zr2199     O2209   2.368   1_565  S
O2200      H2220   0.989       .  S
O2200      H2225   0.989       .  S
O2201      H2221   0.988       .  S
Zr2202     O2203   2.434       .  S
Zr2202     O2204   2.436       .  S
Zr2202     O2208   2.273       .  S
Zr2202     O2207   2.375       .  S
Zr2202     O2212   2.368       .  S
Zr2202     O2210   2.348       .  S
O2203      H2219   0.990       .  S
O2204      H2218   0.990       .  S
O2204      H2228   0.990       .  S
Zr2205     O2208   2.238       .  S
Zr2205     O2210   2.415       .  S
Zr2205     O2211   2.373   1_565  S
Zr2206     O2207   2.394       .  S
Zr2206     O2209   2.355   1_565  S
Zr2206     O2212   2.420       .  S
O2207      H2215   0.963       .  S
O2210      H2214   0.965       .  S
O2211      H2216   0.966       .  S
O2229     Zr4881   2.575   1_455  S
O2229      C2231   1.315       .  A
O2230     Zr2267   2.341       .  S
O2230      C2231   1.271       .  A
C2231      C2440   1.493       .  S
O2232     Zr2244   2.429       .  S
O2232      C2234   1.272       .  A
O2233     Zr2268   2.470       .  S
O2233      C2234   1.282       .  A
C2234      C2536   1.497       .  S
O2235     Zr4884   2.413       .  S
O2235      C2237   1.282   1_655  A
O2236     Zr2267   2.507       .  S
O2236      C2237   1.301       .  A
C2237      C2629   1.490       .  S
O2238     Zr2241   2.540       .  S
O2238      C2240   1.309       .  A
O2239     Zr2268   2.343       .  S
O2239      C2240   1.267       .  A
C2240      C2425   1.502       .  S
Zr2241     O4869   2.562       .  S
Zr2241     O2242   2.434       .  S
Zr2241     O2243   2.435       .  S
Zr2241     O4887   2.358       .  S
Zr2241     O2248   2.374       .  S
Zr2241     O2271   2.376       .  S
Zr2241     O4913   2.367       .  S
O2242      H4925   0.990       .  S
O2243      H4924   0.990       .  S
O2243      H2288   0.990       .  S
Zr2244     O4875   2.431       .  S
Zr2244     O2245   2.454       .  S
Zr2244     O2246   2.434       .  S
Zr2244     O2248   2.408       .  S
Zr2244     O4887   2.366       .  S
Zr2244     O4912   2.384       .  S
Zr2244     O2274   2.393       .  S
O2245      H2286   0.989       .  S
O2245      H2289   0.989       .  S
O2246      H2279   0.990       .  S
O2247     Zr4881   2.367       .  S
O2247     Zr4884   2.379       .  S
O2247     Zr2267   2.347   1_655  S
O2248     Zr2268   2.367       .  S
O2248      H2275   0.954       .  S
O2249     Zr2261   2.576       .  S
O2249      C2251   1.315       .  A
O2250     Zr2268   2.327       .  S
O2250      C2251   1.268       .  A
C2251      C2377   1.494       .  S
O2252     Zr4904   2.395   1_455  S
O2252      C2254   1.278       .  A
O2253     Zr2267   2.460       .  S
O2253      C2254   1.292       .  A
C2254      C2620   1.475       .  S
O2255     Zr2264   2.397       .  S
O2255      C2257   1.278       .  A
O2256     Zr2268   2.473       .  S
O2256      C2257   1.294       .  A
C2257      C2524   1.476       .  S
O2258     Zr4901   2.528   1_455  S
O2258      C2260   1.306       .  A
O2259     Zr2267   2.368       .  S
O2259      C2260   1.277       .  A
C2260      C2389   1.495       .  S
Zr2261     O4898   2.552       .  S
Zr2261     O2262   2.434       .  S
Zr2261     O2263   2.433       .  S
Zr2261     O2269   2.370       .  S
Zr2261     O4910   2.365       .  S
Zr2261     O4913   2.379       .  S
Zr2261     O2271   2.362       .  S
O2262      H2282   0.989       .  S
O2262      H2287   0.990       .  S
O2263      H2283   0.990       .  S
Zr2264     O4892   2.406       .  S
Zr2264     O2265   2.438       .  S
Zr2264     O2266   2.439       .  S
Zr2264     O4910   2.354       .  S
Zr2264     O2269   2.386       .  S
Zr2264     O2274   2.383       .  S
Zr2264     O4912   2.391       .  S
O2265      H2281   0.990       .  S
O2266      H2280   0.990       .  S
O2266      H2290   0.990       .  S
Zr2267     O2270   2.371   1_455  S
Zr2267     O2272   2.372   1_455  S
Zr2267     O2273   2.409   1_455  S
Zr2268     O2269   2.372       .  S
Zr2268     O2271   2.409       .  S
Zr2268     O2274   2.373       .  S
O2269      H2277   0.962       .  S
O2270     Zr4901   2.378       .  S
O2270     Zr4904   2.362       .  S
O2272     Zr4884   2.383       .  S
O2272     Zr4904   2.385       .  S
O2272      H2276   0.966   1_655  S
O2273     Zr4881   2.363       .  S
O2273     Zr4901   2.359       .  S
O2273      H2278   0.965   1_655  S
H2284      O4883   0.990       .  S
H2285      O4882   0.990       .  S
O2291     Zr4943   2.389   1_455  S
O2291      C2293   1.277       .  A
O2292     Zr2329   2.470       .  S
O2292      C2293   1.294       .  A
C2293      C2608   1.476       .  S
O2294     Zr2306   2.509       .  S
O2294      C2296   1.301       .  A
O2295     Zr2330   2.385       .  S
O2295      C2296   1.280       .  A
C2296      C2404   1.496       .  S
O2297     Zr4946   2.558   1_455  S
O2297      C2299   1.310       .  A
O2298     Zr2329   2.322       .  S
O2298      C2299   1.267       .  A
C2299      C2416   1.492       .  S
O2300     Zr2303   2.415       .  S
O2300      C2302   1.271       .  A
O2301     Zr2330   2.462       .  S
O2301      C2302   1.282       .  A
C2302      C2512   1.493       .  S
Zr2303     O4931   2.405       .  S
Zr2303     O2304   2.432       .  S
Zr2303     O2305   2.434       .  S
Zr2303     O4949   2.357       .  S
Zr2303     O2310   2.395       .  S
Zr2303     O2333   2.377       .  S
Zr2303     O4975   2.383       .  S
O2304      H4987   0.990       .  S
O2305      H2346   0.990       .  S
O2305      H2350   0.988       .  S
Zr2306     O4937   2.547       .  S
Zr2306     O2307   2.435       .  S
Zr2306     O2308   2.435       .  S
Zr2306     O2310   2.388       .  S
Zr2306     O4949   2.351       .  S
Zr2306     O4974   2.366       .  S
Zr2306     O2336   2.384       .  S
O2307      H2348   0.990       .  S
O2307      H2351   0.990       .  S
O2308      H4981   0.990       .  S
O2309     Zr4943   2.260       .  S
O2309     Zr4946   2.261       .  S
O2309     Zr2329   2.230   1_655  S
O2310     Zr2330   2.398       .  S
O2310      H2337   0.962       .  S
O2311     Zr2323   2.410       .  S
O2311      C2313   1.272       .  A
O2312     Zr2330   2.475       .  S
O2312      C2313   1.289       .  A
C2313      C2500   1.499       .  S
O2314     Zr4966   2.543   1_455  S
O2314      C2316   1.309       .  A
O2315     Zr2329   2.361       .  S
O2315      C2316   1.273       .  A
C2316      C2368   1.506       .  S
O2317     Zr2326   2.559       .  S
O2317      C2319   1.311       .  A
O2318     Zr2330   2.360       .  S
O2318      C2319   1.274       .  A
C2319      C2356   1.497       .  S
O2320     Zr4963   2.400   1_455  S
O2320      C2322   1.279       .  A
O2321     Zr2329   2.449       .  S
O2321      C2322   1.287       .  A
C2322      C2596   1.470       .  S
Zr2323     O4960   2.398       .  S
Zr2323     O2324   2.434       .  S
Zr2323     O2325   2.433       .  S
Zr2323     O2331   2.396       .  S
Zr2323     O4972   2.356       .  S
Zr2323     O4975   2.384       .  S
Zr2323     O2333   2.376       .  S
O2324      H2344   0.989       .  S
O2324      H2349   0.989       .  S
O2325      H2345   0.990       .  S
Zr2326     O4954   2.566       .  S
Zr2326     O2327   2.436       .  S
Zr2326     O2328   2.433       .  S
Zr2326     O4972   2.366       .  S
Zr2326     O2331   2.377       .  S
Zr2326     O2336   2.381       .  S
Zr2326     O4974   2.366       .  S
O2327      H2343   0.990       .  S
O2328      H2342   0.990       .  S
O2328      H2352   0.990       .  S
Zr2329     O2332   2.344       .  S
Zr2329     O2334   2.407   1_455  S
Zr2329     O2335   2.375       .  S
Zr2330     O2331   2.404       .  S
Zr2330     O2333   2.392       .  S
Zr2330     O2336   2.408       .  S
O2331      H2339   0.964       .  S
O2332     Zr4963   2.360   1_455  S
O2332     Zr4966   2.368   1_455  S
O2334     Zr4946   2.376       .  S
O2334     Zr4966   2.380       .  S
O2334      H2338   0.966   1_655  S
O2335     Zr4943   2.386   1_455  S
O2335     Zr4963   2.381   1_455  S
O2335      H2340   0.966       .  S
H2341      O4948   0.990       .  S
H2347      O4944   0.990       .  S
C2353      C2354   1.409       .  A
C2353      C2358   1.406       .  A
C2354      C2355   1.414       .  A
C2354      H2363   1.082       .  S
C2355      C2356   1.417       .  A
C2355      S2359   1.800       .  S
C2356      C2357   1.408       .  A
C2357      C2358   1.406       .  A
C2357      H2364   1.072       .  S
C2358      S2360   1.800       .  S
S2359      H2362   1.406       .  S
S2360      H2361   1.405       .  S
C2365      C2366   1.393       .  A
C2365      C2370   1.428       .  A
C2366      C2367   1.408       .  A
C2366      H2375   1.083       .  S
C2367      C2368   1.429       .  A
C2367      S2371   1.798       .  S
C2368      C2369   1.397       .  A
C2369      C2370   1.410       .  A
C2369      H2376   1.081       .  S
C2370      S2372   1.804       .  S
S2371      H2374   1.406       .  S
S2372      H2373   1.405       .  S
C2377      C2378   1.421       .  A
C2377      C2382   1.404       .  A
C2378      C2379   1.419       .  A
C2378      H2387   1.084       .  S
C2379      C2380   1.415       .  A
C2379      S2383   1.799       .  S
C2380      C2381   1.415       .  A
C2381      C2382   1.400       .  A
C2381      H2388   1.085       .  S
C2382      S2384   1.793       .  S
S2383      H2386   1.405       .  S
S2384      H2385   1.405       .  S
C2389      C2390   1.417       .  A
C2389      C2394   1.407       .  A
C2390      C2391   1.408       .  A
C2390      H2399   1.082       .  S
C2391      C2392   1.406       .  A
C2392      C2393   1.416       .  A
C2393      C2394   1.404       .  A
C2393      H2400   1.084       .  S
C2394      S2396   1.801       .  S
S2395      H2398   1.407       .  S
S2396      H2397   1.407       .  S
C2401      C2402   1.414       .  A
C2401      C2406   1.407       .  A
C2402      C2403   1.408       .  A
C2402      H2411   1.083       .  S
C2403      C2404   1.413       .  A
C2403      S2407   1.804       .  S
C2404      C2405   1.414       .  A
C2405      C2406   1.406       .  A
C2405      H2412   1.083       .  S
C2406      S2408   1.807       .  S
S2407      H2410   1.404       .  S
S2408      H2409   1.407       .  S
C2413      C2414   1.417       .  A
C2413      C2418   1.405       .  A
C2414      C2415   1.412       .  A
C2414      H2423   1.084       .  S
C2415      C2416   1.415       .  A
C2415      S2419   1.803       .  S
C2416      C2417   1.416       .  A
C2417      C2418   1.404       .  A
C2417      H2424   1.082       .  S
C2418      S2420   1.796       .  S
S2419      H2422   1.403       .  S
S2420      H2421   1.405       .  S
C2425      C2426   1.391       .  A
C2425      C2430   1.436       .  A
C2426      C2427   1.404       .  A
C2426      H2435   1.082       .  S
C2427      C2428   1.445       .  A
C2427      S2431   1.819       .  S
C2428      C2429   1.393       .  A
C2429      C2430   1.405       .  A
C2429      H2436   1.082       .  S
C2430      S2432   1.811       .  S
S2431      H2434   1.407       .  S
S2432      H2433   1.407       .  S
C2437      C2438   1.407       .  A
C2437      C2442   1.418       .  A
C2438      C2439   1.405       .  A
C2438      H2447   1.075       .  S
C2439      C2440   1.409       .  A
C2439      S2443   1.795       .  S
C2440      C2441   1.415       .  A
C2441      C2442   1.416       .  A
C2441      H2448   1.084       .  S
C2442      S2444   1.803       .  S
S2443      H2446   1.405       .  S
S2444      H2445   1.404       .  S
C2449      C2450   1.422       .  A
C2449      C2454   1.413       .  A
C2450      C2451   1.402       .  A
C2450      H2459   1.084       .  S
C2451      C2452   1.403       .  A
C2451      S2455   1.803       .  S
C2452      C2453   1.414       .  A
C2453      C2454   1.410       .  A
C2453      H2460   1.084       .  S
C2454      S2456   1.799       .  S
S2455      H2458   1.403       .  S
S2456      H2457   1.407       .  S
C2461      C2462   1.424       .  A
C2461      C2466   1.410       .  A
C2462      C2463   1.409       .  A
C2462      H2471   1.081       .  S
C2463      C2464   1.405       .  A
C2463      S2467   1.799       .  S
C2464      C2465   1.423       .  A
C2465      C2466   1.413       .  A
C2465      H2472   1.084       .  S
C2466      S2468   1.798       .  S
S2467      H2470   1.407       .  S
S2468      H2469   1.407       .  S
C2473      C2474   1.414       .  A
C2473      C2478   1.407       .  A
C2474      C2475   1.412       .  A
C2474      H2483   1.081       .  S
C2475      C2476   1.413       .  A
C2475      S2479   1.801       .  S
C2476      C2477   1.421       .  A
C2477      C2478   1.406       .  A
C2477      H2484   1.077       .  S
C2478      S2480   1.801       .  S
S2479      H2482   1.407       .  S
S2480      H2481   1.406       .  S
C2485      C2486   1.391       .  A
C2485      C2490   1.422       .  A
C2486      C2487   1.411       .  A
C2486      H2495   1.083       .  S
C2487      C2488   1.445       .  A
C2487      S2491   1.813       .  S
C2488      C2489   1.403       .  A
C2489      C2490   1.412       .  A
C2489      H2496   1.082       .  S
C2490      S2492   1.800       .  S
S2491      H2494   1.406       .  S
S2492      H2493   1.407       .  S
C2497      C2498   1.411       .  A
C2497      C2502   1.415       .  A
C2498      C2499   1.400       .  A
C2498      H2507   1.082       .  S
C2499      C2500   1.412       .  A
C2499      S2503   1.806       .  S
C2500      C2501   1.408       .  A
C2501      C2502   1.413       .  A
C2501      H2508   1.073       .  S
C2502      S2504   1.799       .  S
S2503      H2506   1.407       .  S
S2504      H2505   1.406       .  S
C2509      C2510   1.409       .  A
C2509      C2514   1.416       .  A
C2510      C2511   1.398       .  A
C2510      H2519   1.079       .  S
C2511      C2512   1.409       .  A
C2511      S2515   1.805       .  S
C2512      C2513   1.413       .  A
C2513      C2514   1.416       .  A
C2513      H2520   1.083       .  S
C2514      S2516   1.800       .  S
S2515      H2518   1.407       .  S
S2516      H2517   1.406       .  S
C2521      C2522   1.394       .  A
C2521      C2526   1.431       .  A
C2522      C2523   1.402       .  A
C2522      H2531   1.083       .  S
C2523      C2524   1.423       .  A
C2523      S2527   1.809       .  S
C2524      C2525   1.388       .  A
C2525      C2526   1.396       .  A
C2525      H2532   1.084       .  S
C2526      S2528   1.802       .  S
S2527      H2530   1.407       .  S
S2528      H2529   1.387       .  S
C2533      C2534   1.411       .  A
C2533      C2538   1.399       .  A
C2534      C2535   1.413       .  A
C2534      H2543   1.082       .  S
C2535      C2536   1.414       .  A
C2535      S2539   1.801       .  S
C2536      C2537   1.406       .  A
C2537      C2538   1.392       .  A
C2537      H2544   1.076       .  S
C2538      S2540   1.804       .  S
S2539      H2542   1.405       .  S
S2540      H2541   1.401       .  S
C2545      C2546   1.411       .  A
C2545      C2550   1.411       .  A
C2546      C2547   1.401       .  A
C2546      H2555   1.085       .  S
C2547      C2548   1.414       .  A
C2547      S2551   1.801       .  S
C2548      C2549   1.412       .  A
C2549      C2550   1.411       .  A
C2549      H2556   1.081       .  S
C2550      S2552   1.797       .  S
S2551      H2554   1.407       .  S
S2552      H2553   1.405       .  S
C2557      C2558   1.405       .  A
C2557      C2562   1.407       .  A
C2558      C2559   1.405       .  A
C2558      H2567   1.082       .  S
C2559      C2560   1.419       .  A
C2559      S2563   1.800       .  S
C2560      C2561   1.413       .  A
C2561      C2562   1.396       .  A
C2561      H2568   1.083       .  S
C2562      S2564   1.805       .  S
S2563      H2566   1.408       .  S
S2564      H2565   1.405       .  S
C2569      C2570   1.422       .  A
C2569      C2574   1.395       .  A
C2570      C2571   1.402       .  A
C2570      H2579   1.082       .  S
C2571      C2572   1.398       .  A
C2571      S2575   1.804       .  S
C2572      C2573   1.418       .  A
C2573      C2574   1.389       .  A
C2573      H2580   1.075       .  S
C2574      S2576   1.799       .  S
S2575      H2578   1.407       .  S
S2576      H2577   1.408       .  S
C2581      C2582   1.397       .  A
C2581      C2586   1.432       .  A
C2582      C2583   1.401       .  A
C2582      H2591   1.082       .  S
C2583      C2584   1.418       .  A
C2583      S2587   1.805       .  S
C2584      C2585   1.390       .  A
C2585      C2586   1.401       .  A
C2585      H2592   1.083       .  S
C2586      S2588   1.807       .  S
S2587      H2590   1.406       .  S
S2588      H2589   1.407       .  S
C2593      C2594   1.413       .  A
C2593      C2598   1.398       .  A
C2594      C2595   1.404       .  A
C2594      H2603   1.082       .  S
C2595      C2596   1.398       .  A
C2595      S2599   1.803       .  S
C2596      C2597   1.411       .  A
C2597      C2598   1.395       .  A
C2597      H2604   1.083       .  S
C2598      S2600   1.800       .  S
S2599      H2602   1.407       .  S
S2600      H2601   1.406       .  S
C2605      C2606   1.413       .  A
C2605      C2610   1.405       .  A
C2606      C2607   1.398       .  A
C2606      H2615   1.076       .  S
C2607      C2608   1.398       .  A
C2607      S2611   1.804       .  S
C2608      C2609   1.413       .  A
C2609      C2610   1.405       .  A
C2609      H2616   1.084       .  S
C2610      S2612   1.801       .  S
S2611      H2614   1.408       .  S
S2612      H2613   1.404       .  S
C2617      C2618   1.414       .  A
C2617      C2622   1.410       .  A
C2618      C2619   1.397       .  A
C2618      H2627   1.084       .  S
C2619      C2620   1.400       .  A
C2619      S2623   1.799       .  S
C2620      C2621   1.414       .  A
C2621      C2622   1.405       .  A
C2621      H2628   1.084       .  S
C2622      S2624   1.798       .  S
S2623      H2626   1.407       .  S
S2624      H2625   1.407       .  S
C2629      C2630   1.416       .  A
C2629      C2634   1.406       .  A
C2630      C2631   1.413       .  A
C2630      H2639   1.083       .  S
C2631      C2632   1.402       .  A
C2631      S2635   1.802       .  S
C2632      C2633   1.412       .  A
C2633      C2634   1.403       .  A
C2633      H2640   1.082       .  S
C2634      S2636   1.800       .  S
S2635      H2638   1.407   1_455  S
S2636      H2637   1.405       .  S
O2641     Zr2653   2.522       .  S
O2641      C2643   1.305       .  A
O2642     Zr3339   2.400   1_554  S
O2642      C2643   1.279       .  A
C2643      C3241   1.518       .  S
O2644     Zr2656   2.430       .  S
O2644      C2646   1.283       .  A
O2645     Zr2680   2.442   1_554  S
O2645      C2646   1.287       .  A
C2646      C3265   1.468       .  S
O2647     Zr2656   2.407       .  S
O2647      C2649   1.280       .  A
O2648     Zr3339   2.451   1_554  S
O2648      C2649   1.289       .  A
C2649      C3292   1.483       .  S
O2650     Zr2653   2.542       .  S
O2650      C2652   1.308       .  A
O2651     Zr2680   2.319   1_554  S
O2651      C2652   1.270       .  A
C2652      C3232   1.476       .  S
Zr2653     O2654   2.436       .  S
Zr2653     O2655   2.435       .  S
Zr2653     O2659   2.288       .  S
Zr2653     O2660   2.360       .  S
Zr2653     O3343   2.368   1_554  S
Zr2653     O3345   2.384   1_554  S
O2654      H2697   0.990       .  S
O2655      H2696   0.990       .  S
O2655      H2700   0.990       .  S
Zr2656     O2657   2.447       .  S
Zr2656     O2658   2.434       .  S
Zr2656     O2659   2.286       .  S
Zr2656     O2660   2.365       .  S
Zr2656     O2684   2.385   1_554  S
Zr2656     O2686   2.364   1_554  S
O2657      H2698   0.991       .  S
O2657      H2701   0.989       .  S
O2658      H2691   0.990       .  S
O2659     Zr3339   2.246   1_554  S
O2660     Zr2680   2.370   1_554  S
O2660      H2687   0.960       .  S
O2661     Zr2673   2.526       .  S
O2661      C2663   1.292       .  A
O2662     Zr3340   2.379       .  S
O2662      C2663   1.262       .  A
C2663      C3205   1.513       .  S
O2664     Zr2676   2.425       .  S
O2664      C2666   1.284       .  A
O2665     Zr2679   2.465       .  S
O2665      C2666   1.293       .  A
C2666      C3277   1.502       .  S
O2667     Zr2676   2.446       .  S
O2667      C2669   1.288       .  A
O2668     Zr3340   2.438       .  S
O2668      C2669   1.288       .  A
C2669      C3253   1.470       .  S
O2670     Zr2673   2.519       .  S
O2670      C2672   1.303       .  A
O2671     Zr2679   2.370       .  S
O2671      C2672   1.276       .  A
C2672      C3217   1.491       .  S
Zr2673     O2674   2.437       .  S
Zr2673     O2675   2.434       .  S
Zr2673     O2681   2.382       .  S
Zr2673     O2682   2.370       .  S
Zr2673     O2685   2.387       .  S
Zr2673     O2683   2.388       .  S
O2674      H2694   0.990       .  S
O2674      H2699   0.990       .  S
O2675      H2695   0.990       .  S
Zr2676     O2677   2.437       .  S
Zr2676     O2678   2.433       .  S
Zr2676     O2682   2.371       .  S
Zr2676     O2681   2.373       .  S
Zr2676     O3346   2.383       .  S
Zr2676     O3344   2.400       .  S
O2677      H2693   0.991       .  S
O2678      H2692   0.990       .  S
O2678      H2702   0.990       .  S
Zr2679     O3302   2.353       .  S
Zr2679     O3308   2.480       .  S
Zr2679     O3319   2.248       .  S
Zr2679     O2682   2.360       .  S
Zr2679     O3344   2.389       .  S
Zr2679     O2685   2.405       .  S
Zr2680     O3322   2.383       .  S
Zr2680     O3328   2.435       .  S
Zr2680     O3341   2.388       .  S
Zr2680     O3343   2.402       .  S
Zr2680     O2686   2.371       .  S
O2681     Zr3340   2.385       .  S
O2681      H2689   0.960       .  S
O2683     Zr3313   2.364       .  S
O2683     Zr3340   2.404       .  S
O2684     Zr3336   2.402       .  S
O2684     Zr3339   2.398       .  S
O2684      H2688   0.966       .  S
O2685     Zr3313   2.374       .  S
O2685      H2690   0.966       .  S
O2686     Zr3336   2.380       .  S
O2703     Zr2715   2.376       .  S
O2703      C2705   1.275       .  A
O2704     Zr3401   2.518       .  S
O2704      C2705   1.302       .  A
C2705      C3193   1.472       .  S
O2706     Zr2718   2.519       .  S
O2706      C2708   1.303       .  A
O2707     Zr3402   2.357   1_554  S
O2707      C2708   1.276       .  A
C2708      C3109   1.492       .  S
O2709     Zr2718   2.539       .  S
O2709      C2711   1.306       .  A
O2710     Zr2741   2.311       .  S
O2710      C3371   1.268       .  A
C2711      O3370   1.271       .  A
C2711      C3124   1.491       .  S
O2712     Zr2715   2.434       .  S
O2712      C2714   1.278       .  A
O2713     Zr3402   2.489   1_554  S
O2713      C2714   1.290       .  A
C2714      C3169   1.511       .  S
Zr2715     O2716   2.447       .  S
Zr2715     O2717   2.443       .  S
Zr2715     O2721   2.374       .  S
Zr2715     O2722   2.384       .  S
Zr2715     O3405   2.390   1_554  S
Zr2715     O3407   2.393   1_554  S
O2716      H2759   0.990       .  S
O2717      H2758   0.990       .  S
O2717      H2762   0.985       .  S
Zr2718     O2719   2.436       .  S
Zr2718     O2720   2.434       .  S
Zr2718     O2722   2.369       .  S
Zr2718     O2721   2.352       .  S
Zr2718     O3406   2.372       .  S
Zr2718     O3408   2.382       .  S
O2719      H2760   0.990       .  S
O2719      H2763   0.990       .  S
O2720      H2753   0.990       .  S
O2721     Zr3401   2.342       .  S
O2722     Zr3402   2.370   1_554  S
O2722      H2749   0.953       .  S
O2723     Zr2735   2.411       .  S
O2723      C2725   1.279       .  A
O2724     Zr2742   2.469       .  S
O2724      C2725   1.293       .  A
C2725      C3157   1.478       .  S
O2726     Zr2738   2.549       .  S
O2726      C2728   1.306       .  A
O2727     Zr2741   2.355       .  S
O2727      C2728   1.262       .  A
C2728      C3148   1.510       .  S
O2729     Zr2738   2.539       .  S
O2729      C2731   1.307       .  A
O2730     Zr2742   2.338       .  S
O2730      C2731   1.271       .  A
C2731      C3133   1.487       .  S
O2732     Zr2735   2.385       .  S
O2732      C2734   1.274       .  A
O2733     Zr2741   2.469       .  S
O2733      C2734   1.292       .  A
C2734      C3181   1.475       .  S
Zr2735     O2736   2.443       .  S
Zr2735     O2737   2.434       .  S
Zr2735     O2744   2.271       .  S
Zr2735     O2743   2.375       .  S
Zr2735     O2747   2.383       .  S
Zr2735     O2745   2.376       .  S
O2736      H2756   0.991       .  S
O2736      H2761   0.990       .  S
O2737      H2757   0.990       .  S
Zr2738     O2739   2.434       .  S
Zr2738     O2740   2.437       .  S
Zr2738     O2744   2.280       .  S
Zr2738     O2743   2.369       .  S
Zr2738     O2748   2.374       .  S
Zr2738     O2746   2.360       .  S
O2739      H2755   0.990       .  S
O2740      H2754   0.990       .  S
O2740      H2764   0.990       .  S
Zr2741     O3364   2.492       .  S
Zr2741     O2744   2.252       .  S
Zr2741     O3381   2.337       .  S
Zr2741     O2746   2.410       .  S
Zr2741     O2747   2.366       .  S
Zr2742     O3367   2.367       .  S
Zr2742     O3373   2.458       .  S
Zr2742     O3382   2.385       .  S
Zr2742     O2743   2.387       .  S
Zr2742     O2745   2.379       .  S
Zr2742     O2748   2.414       .  S
O2743      H2751   0.962       .  S
O2745     Zr3375   2.385       .  S
O2746     Zr3378   2.363       .  S
O2746      H2750   0.965       .  S
O2747     Zr3375   2.387       .  S
O2747      H2752   0.966       .  S
O2748     Zr3378   2.383       .  S
O2765     Zr2777   2.558       .  S
O2765      C2767   1.312       .  A
O2766     Zr4123   2.336   1_545  S
O2766      C2767   1.272       .  A
C2767      C3097   1.498       .  S
O2768     Zr2780   2.418       .  S
O2768      C2770   1.283       .  A
O2769     Zr2804   2.487   1_545  S
O2769      C2770   1.295       .  A
C2770      C3121   1.485       .  S
O2771     Zr2780   2.405       .  S
O2771      C2773   1.277       .  A
O2772     Zr4123   2.514   1_545  S
O2772      C2773   1.302       .  A
C2773      C3244   1.511       .  S
O2774     Zr2777   2.568       .  S
O2774      C2776   1.305       .  A
O2775     Zr2804   2.361   1_545  S
O2775      C2776   1.257       .  A
C2776      C3088   1.515       .  S
Zr2777     O2778   2.436       .  S
Zr2777     O2779   2.435       .  S
Zr2777     O2783   2.380       .  S
Zr2777     O2784   2.367       .  S
Zr2777     O2807   2.382   1_545  S
Zr2777     O4129   2.370   1_545  S
O2778      H2821   0.990       .  S
O2779      H2820   0.990       .  S
O2779      H2824   0.990       .  S
Zr2780     O2781   2.441       .  S
Zr2780     O2782   2.433       .  S
Zr2780     O2784   2.374       .  S
Zr2780     O2783   2.374       .  S
Zr2780     O2808   2.383   1_545  S
Zr2780     O2810   2.381   1_545  S
O2781      H2822   0.988       .  S
O2781      H2825   0.990       .  S
O2782      H2815   0.990       .  S
O2783     Zr4123   2.363   1_545  S
O2784     Zr2804   2.398   1_545  S
O2784      H2811   0.958       .  S
O2785     Zr2797   2.551       .  S
O2785      C2787   1.308       .  A
O2786     Zr4124   2.345       .  S
O2786      C2787   1.270       .  A
C2787      C3061   1.494       .  S
O2788     Zr2800   2.361       .  S
O2788      C2790   1.271       .  A
O2789     Zr2803   2.476       .  S
O2789      C2790   1.295       .  A
C2790      C3229   1.498       .  S
O2791     Zr2800   2.404       .  S
O2791      C2793   1.278       .  A
O2792     Zr4124   2.462       .  S
O2792      C2793   1.291       .  A
C2793      C3112   1.475       .  S
O2794     Zr2797   2.520       .  S
O2794      C2796   1.303       .  A
O2795     Zr2803   2.402       .  S
O2795      C2796   1.280       .  A
C2796      C3073   1.492       .  S
Zr2797     O2798   2.436       .  S
Zr2797     O2799   2.435       .  S
Zr2797     O2806   2.296       .  S
Zr2797     O2805   2.355       .  S
Zr2797     O2809   2.375       .  S
Zr2797     O4127   2.367       .  S
O2798      H2818   0.990       .  S
O2798      H2823   0.990       .  S
O2799      H2819   0.990       .  S
Zr2800     O2801   2.438       .  S
Zr2800     O2802   2.426       .  S
Zr2800     O2806   2.291       .  S
Zr2800     O2805   2.364       .  S
Zr2800     O4130   2.358       .  S
Zr2800     O4128   2.379       .  S
O2801      H2817   0.991       .  S
O2802      H2816   0.990       .  S
O2802      H2826   0.987   1_554  S
Zr2803     O4086   2.336       .  S
Zr2803     O4092   2.505       .  S
Zr2803     O2806   2.258       .  S
Zr2803     O4103   2.370       .  S
Zr2803     O4128   2.386       .  S
Zr2803     O2809   2.413       .  S
Zr2804     O4106   2.353       .  S
Zr2804     O4112   2.473       .  S
Zr2804     O4125   2.372       .  S
Zr2804     O2807   2.413       .  S
Zr2804     O2810   2.377       .  S
O2805     Zr4124   2.370       .  S
O2805      H2813   0.961       .  S
O2807     Zr4117   2.372       .  S
O2808     Zr4120   2.380       .  S
O2808     Zr4123   2.384       .  S
O2808      H2812   0.965       .  S
O2809     Zr4097   2.365       .  S
O2809      H2814   0.965       .  S
O2810     Zr4120   2.359       .  S
O2827     Zr2839   2.395       .  S
O2827      C2829   1.275       .  A
O2828     Zr4185   2.471   1_545  S
O2828      C2829   1.293       .  A
C2829      C3220   1.478       .  S
O2830     Zr2842   2.556       .  S
O2830      C2832   1.310       .  A
O2831     Zr4186   2.336   1_545  S
O2831      C2832   1.271       .  A
C2832      C3040   1.501       .  S
O2833     Zr2842   2.535       .  S
O2833      C2835   1.306       .  A
O2834     Zr4185   2.355   1_545  S
O2834      C2835   1.274       .  A
C2835      C3052   1.501       .  S
O2836     Zr2839   2.382       .  S
O2836      C2838   1.274       .  A
O2837     Zr4186   2.506   1_545  S
O2837      C2838   1.301       .  A
C2838      C3145   1.483       .  S
Zr2839     O2840   2.438       .  S
Zr2839     O2841   2.433       .  S
Zr2839     O2845   2.377       .  S
Zr2839     O2846   2.380       .  S
Zr2839     O4189   2.392   1_545  S
Zr2839     O4191   2.386   1_545  S
O2840      H2883   0.991       .  S
O2841      H2882   0.990       .  S
O2841      H2886   0.990       .  S
Zr2842     O2843   2.435       .  S
Zr2842     O2844   2.434       .  S
Zr2842     O2846   2.366       .  S
Zr2842     O2845   2.398       .  S
Zr2842     O4190   2.370   1_545  S
Zr2842     O4192   2.374   1_545  S
O2843      H2884   0.990       .  S
O2843      H2887   0.990       .  S
O2844      H2877   0.990   1_545  S
O2845     Zr4185   2.371   1_545  S
O2846     Zr4186   2.377   1_545  S
O2846      H2873   0.962       .  S
O2847     Zr2859   2.421       .  S
O2847      C2849   1.280       .  A
O2848     Zr2866   2.471       .  S
O2848      C2849   1.292       .  A
C2849      C3136   1.498       .  S
O2850     Zr2862   2.543       .  S
O2850      C2852   1.309       .  A
O2851     Zr2865   2.350       .  S
O2851      C2852   1.274       .  A
C2852      C3025   1.489       .  S
O2853     Zr2862   2.547       .  S
O2853      C2855   1.309       .  A
O2854     Zr2866   2.342       .  S
O2854      C2855   1.273       .  A
C2855      C3013   1.486       .  S
O2856     Zr2859   2.400       .  S
O2856      C2858   1.275       .  A
O2857     Zr2865   2.491       .  S
O2857      C2858   1.296       .  A
C2858      C3208   1.489       .  S
Zr2859     O2860   2.448       .  S
Zr2859     O2861   2.425       .  S
Zr2859     O2868   2.278       .  S
Zr2859     O2867   2.368       .  S
Zr2859     O2871   2.389       .  S
Zr2859     O2869   2.375       .  S
O2860      H2880   0.989       .  S
O2860      H2885   0.988       .  S
O2861      H2881   0.990       .  S
Zr2862     O2863   2.437       .  S
Zr2862     O2864   2.436       .  S
Zr2862     O2868   2.285       .  S
Zr2862     O2867   2.356       .  S
Zr2862     O2872   2.370       .  S
Zr2862     O2870   2.360       .  S
O2863      H2879   0.990       .  S
O2864      H2878   0.990       .  S
O2864      H2888   0.990       .  S
Zr2865     O4148   2.481       .  S
Zr2865     O4154   2.385       .  S
Zr2865     O2868   2.253       .  S
Zr2865     O4165   2.379       .  S
Zr2865     O2870   2.417       .  S
Zr2865     O2871   2.378       .  S
Zr2866     O4151   2.319       .  S
Zr2866     O4157   2.514       .  S
Zr2866     O4166   2.372       .  S
Zr2866     O2867   2.383       .  S
Zr2866     O2869   2.357       .  S
Zr2866     O2872   2.412       .  S
O2867      H2875   0.961       .  S
O2869     Zr4159   2.387       .  S
O2870     Zr4162   2.374       .  S
O2870      H2874   0.964       .  S
O2871     Zr4159   2.389       .  S
O2871      H2876   0.966       .  S
O2872     Zr4162   2.368       .  S
O2889      C2891   1.311       .  A
O2890     Zr2927   2.322       .  S
O2890      C2891   1.271       .  A
C2891      C3100   1.487       .  S
O2892     Zr2904   2.420       .  S
O2892      C2894   1.271       .  A
O2893     Zr2928   2.475       .  S
O2893      C2894   1.286       .  A
C2894      C3196   1.499       .  S
O2895      C2897   1.281       .  A
O2896     Zr2927   2.481       .  S
O2896      C2897   1.295       .  A
C2897      C3289   1.472       .  S
O2898     Zr2901   2.560       .  S
O2898      C2900   1.314       .  A
O2899     Zr2928   2.354       .  S
O2899      C2900   1.272       .  A
C2900      C3085   1.510       .  S
Zr2901     O2902   2.433       .  S
Zr2901     O2903   2.435       .  S
Zr2901     O2908   2.366       .  S
Zr2901     O2931   2.364       .  S
O2903      H2948   0.990       .  S
Zr2904     O2905   2.458       .  S
Zr2904     O2906   2.437   1_655  S
Zr2904     O2908   2.409       .  S
Zr2904     O2934   2.401       .  S
O2905      H2946   0.989       .  S
O2905      H2949   0.989       .  S
O2906      H2939   0.991       .  S
O2907     Zr2927   2.349       .  S
O2908     Zr2928   2.368       .  S
O2908      H2935   0.953       .  S
O2909     Zr2921   2.534       .  S
O2909      C2911   1.307       .  A
O2910     Zr2928   2.360       .  S
O2910      C2911   1.273       .  A
C2911      C3037   1.485       .  S
O2912      C2914   1.267       .  A
O2913     Zr2927   2.474       .  S
O2913      C2914   1.286       .  A
C2914      C3280   1.487       .  S
O2915     Zr2924   2.390       .  S
O2915      C2917   1.277       .  A
O2916     Zr2928   2.461       .  S
O2916      C2917   1.293       .  A
C2917      C3184   1.470       .  S
O2918      C2920   1.306       .  A
O2919     Zr2927   2.366       .  S
O2919      C2920   1.276       .  A
C2920      C3049   1.497       .  S
Zr2921     O2922   2.433       .  S
Zr2921     O2923   2.431       .  S
Zr2921     O2929   2.367       .  S
Zr2921     O2931   2.363       .  S
O2922      H2942   0.990       .  S
O2922      H2947   0.990       .  S
O2923      H2943   0.990       .  S
Zr2924     O2925   2.438   1_655  S
Zr2924     O2926   2.443   1_655  S
Zr2924     O2929   2.383       .  S
Zr2924     O2934   2.391       .  S
O2925      H2941   0.990       .  S
O2926      H2940   0.990   1_455  S
O2926      H2950   0.989       .  S
Zr2927     O2930   2.373       .  S
Zr2927     O2932   2.378       .  S
Zr2927     O2933   2.416       .  S
Zr2928     O2929   2.377       .  S
Zr2928     O2931   2.405       .  S
Zr2928     O2934   2.382       .  S
O2929      H2937   0.963       .  S
O2932      H2936   0.965       .  S
O2933      H2938   0.966       .  S
O2951      C2953   1.277       .  A
O2952     Zr2989   2.469       .  S
O2952      C2953   1.293       .  A
C2953      C3268   1.469       .  S
O2954     Zr2966   2.536       .  S
O2954      C2956   1.306       .  A
O2955     Zr2990   2.363       .  S
O2955      C2956   1.275       .  A
C2956      C3064   1.496       .  S
O2957      C2959   1.310       .  A
O2958     Zr2989   2.353       .  S
O2958      C2959   1.273       .  A
C2959      C3076   1.495       .  S
O2960     Zr2963   2.409       .  S
O2960      C2962   1.270       .  A
O2961     Zr2990   2.477       .  S
O2961      C2962   1.285       .  A
C2962      C3172   1.498       .  S
Zr2963     O2964   2.436       .  S
Zr2963     O2965   2.433   1_655  S
Zr2963     O2970   2.393       .  S
Zr2963     O2993   2.378       .  S
O2965      H3006   0.990       .  S
O2965      H3010   0.989   1_455  S
Zr2966     O2967   2.436       .  S
Zr2966     O2968   2.427       .  S
Zr2966     O2970   2.384       .  S
Zr2966     O2996   2.375       .  S
O2967      H3008   0.990       .  S
O2967      H3011   0.990       .  S
O2969     Zr2989   2.351       .  S
O2970     Zr2990   2.387       .  S
O2970      H2997   0.961       .  S
O2971     Zr2983   2.434       .  S
O2971      C2973   1.279       .  A
O2972     Zr2990   2.464       .  S
O2972      C2973   1.289       .  A
C2973      C3160   1.493       .  S
O2974      C2976   1.307       .  A
O2975     Zr2989   2.353       .  S
O2975      C2976   1.272       .  A
C2976      C3028   1.496       .  S
O2977     Zr2986   2.544       .  S
O2977      C2979   1.309       .  A
O2978     Zr2990   2.344       .  S
O2978      C2979   1.272       .  A
C2979      C3016   1.485       .  S
O2980      C2982   1.277       .  A
O2981     Zr2989   2.463       .  S
O2981      C2982   1.290       .  A
C2982      C3256   1.473       .  S
Zr2983     O2984   2.447       .  S
Zr2983     O2985   2.435   1_655  S
Zr2983     O2991   2.393       .  S
Zr2983     O2993   2.377       .  S
O2984      H3004   0.990       .  S
O2984      H3009   0.990   1_655  S
O2985      H3005   0.990       .  S
Zr2986     O2987   2.435       .  S
Zr2986     O2988   2.435       .  S
Zr2986     O2991   2.375       .  S
Zr2986     O2996   2.384       .  S
O2987      H3003   0.990       .  S
O2988      H3002   0.990   1_655  S
O2988      H3012   0.990       .  S
Zr2989     O2992   2.356       .  S
Zr2989     O2994   2.404       .  S
Zr2989     O2995   2.382       .  S
Zr2990     O2991   2.392       .  S
Zr2990     O2993   2.383       .  S
Zr2990     O2996   2.410       .  S
O2991      H2999   0.960       .  S
O2994      H2998   0.966       .  S
O2995      H3000   0.966       .  S
C3013      C3014   1.411       .  A
C3013      C3018   1.410       .  A
C3014      C3015   1.404       .  A
C3014      H3023   1.084       .  S
C3015      C3016   1.407       .  A
C3015      S3019   1.797       .  S
C3016      C3017   1.413       .  A
C3017      C3018   1.411       .  A
C3017      H3024   1.082       .  S
C3018      S3020   1.800       .  S
S3019      H3022   1.405       .  S
S3020      H3021   1.405       .  S
C3025      C3026   1.398       .  A
C3025      C3030   1.423       .  A
C3026      C3027   1.407       .  A
C3026      H3035   1.083       .  S
C3027      C3028   1.428       .  A
C3027      S3031   1.809       .  S
C3028      C3029   1.396       .  A
C3029      C3030   1.404       .  A
C3029      H3036   1.081       .  S
C3030      S3032   1.804       .  S
S3031      H3034   1.406       .  S
S3032      H3033   1.407       .  S
C3037      C3038   1.416       .  A
C3037      C3042   1.402       .  A
C3038      C3039   1.416       .  A
C3038      H3047   1.084       .  S
C3039      C3040   1.413       .  A
C3039      S3043   1.799       .  S
C3040      C3041   1.417       .  A
C3041      C3042   1.400       .  A
C3041      H3048   1.083       .  S
C3042      S3044   1.804       .  S
S3043      H3046   1.407       .  S
S3044      H3045   1.407       .  S
C3049      C3050   1.418       .  A
C3049      C3054   1.408       .  A
C3050      C3051   1.409       .  A
C3050      H3059   1.084       .  S
C3051      C3052   1.411       .  A
C3051      S4375   1.800       .  S
C3052      C3053   1.417       .  A
C3053      C3054   1.400       .  A
C3053      H3060   1.084       .  S
C3054      S3056   1.797       .  S
S3055      C4371   1.803       .  S
S3055      H3058   1.405       .  S
S3056      H3057   1.407       .  S
C3061      C3062   1.417       .  A
C3061      C3066   1.408       .  A
C3062      C3063   1.408       .  A
C3062      H3071   1.084       .  S
C3063      C3064   1.409       .  A
C3063      S3067   1.800       .  S
C3064      C3065   1.416       .  A
C3065      C3066   1.408       .  A
C3065      H3072   1.084       .  S
C3066      S3068   1.798       .  S
S3067      H3070   1.405       .  S
S3068      H3069   1.405       .  S
C3073      C3074   1.413       .  A
C3073      C3078   1.404       .  A
C3074      C3075   1.416       .  A
C3074      H3083   1.083       .  S
C3075      C3076   1.415       .  A
C3075      S3079   1.804       .  S
C3076      C3077   1.409       .  A
C3077      C3078   1.402       .  A
C3077      H3084   1.069       .  S
C3078      S3080   1.802       .  S
S3079      H3082   1.405       .  S
S3080      H3081   1.404       .  S
C3085      C3086   1.390       .  A
C3085      C3090   1.434       .  A
C3086      C3087   1.408       .  A
C3086      H3095   1.082       .  S
C3087      C3088   1.441       .  A
C3087      S3091   1.805       .  S
C3088      C3089   1.394       .  A
C3089      C3090   1.406       .  A
C3089      H3096   1.084       .  S
C3090      S3092   1.791       .  S
S3091      H3094   1.406       .  S
S3092      H3093   1.397       .  S
C3097      C3098   1.420       .  A
C3097      C3102   1.405       .  A
C3098      C3099   1.404       .  A
C3098      H3107   1.082       .  S
C3099      C3100   1.403       .  A
C3099      S3103   1.800       .  S
C3100      C3101   1.419       .  A
C3101      C3102   1.410       .  A
C3101      H3108   1.080       .  S
C3102      S3104   1.805       .  S
S3103      H3106   1.406       .  S
S3104      H3105   1.407       .  S
C3109      C3110   1.420       .  A
C3109      C3114   1.405       .  A
C3110      C3111   1.399       .  A
C3110      H3119   1.081       .  S
C3111      C3112   1.397       .  A
C3111      S3115   1.800       .  S
C3112      C3113   1.414       .  A
C3113      C3114   1.401       .  A
C3113      H3120   1.083       .  S
C3114      S3116   1.798       .  S
S3115      H3118   1.406       .  S
S3116      H3117   1.407       .  S
C3121      C3122   1.416       .  A
C3121      C3126   1.403       .  A
C3122      C3123   1.401       .  A
C3122      H3131   1.084       .  S
C3123      C3124   1.402       .  A
C3123      S3127   1.798       .  S
C3124      C3125   1.421       .  A
C3125      C3126   1.405       .  A
C3125      H3132   1.082       .  S
C3126      S3128   1.802       .  S
S3127      H3130   1.407       .  S
S3128      H3129   1.405       .  S
C3133      C3134   1.418       .  A
C3133      C3138   1.401       .  A
C3134      C3135   1.410       .  A
C3134      H3143   1.082       .  S
C3135      C3136   1.406       .  A
C3135      S3139   1.804       .  S
C3136      C3137   1.418       .  A
C3137      C3138   1.405       .  A
C3137      H3144   1.080       .  S
C3138      S3140   1.806       .  S
S3139      H3142   1.408       .  S
S3140      H3141   1.407       .  S
C3145      C3146   1.389       .  A
C3145      C3150   1.421       .  A
C3146      C3147   1.405       .  A
C3146      H3155   1.083       .  S
C3147      C3148   1.441       .  A
C3147      S3151   1.813       .  S
C3148      C3149   1.400       .  A
C3149      C3150   1.407       .  A
C3149      H3156   1.083       .  S
C3150      S3152   1.800       .  S
S3151      H3154   1.407       .  S
S3152      H3153   1.406       .  S
C3157      C3158   1.413       .  A
C3157      C3162   1.405       .  A
C3158      C3159   1.409       .  A
C3158      H3167   1.083       .  S
C3159      C3160   1.410       .  A
C3159      S3163   1.802       .  S
C3160      C3161   1.411       .  A
C3161      C3162   1.400       .  A
C3161      H3168   1.081       .  S
C3162      S3164   1.803       .  S
S3163      H3166   1.405       .  S
S3164      H3165   1.407       .  S
C3169      C3170   1.410       .  A
C3169      C3174   1.417       .  A
C3170      C3171   1.398       .  A
C3170      H3179   1.079       .  S
C3171      C3172   1.409       .  A
C3171      S3175   1.805       .  S
C3172      C3173   1.415       .  A
C3173      C3174   1.418       .  A
C3173      H3180   1.082       .  S
C3174      S3176   1.802       .  S
S3175      H3178   1.407       .  S
S3176      H3177   1.405       .  S
C3181      C3182   1.397       .  A
C3181      C3186   1.424       .  A
C3182      C3183   1.404       .  A
C3182      H3191   1.083       .  S
C3183      C3184   1.423       .  A
C3183      S3187   1.811       .  S
C3184      C3185   1.384       .  A
C3185      C3186   1.392       .  A
C3185      H3192   1.084       .  S
C3186      S3188   1.796       .  S
S3187      H3190   1.406       .  S
S3188      H3189   1.407       .  S
C3193      C3194   1.411       .  A
C3193      C3198   1.404       .  A
C3194      C3195   1.409       .  A
C3194      H3203   1.075       .  S
C3195      C3196   1.405       .  A
C3195      S3199   1.805       .  S
C3196      C3197   1.410       .  A
C3197      C3198   1.400       .  A
C3197      H3204   1.078       .  S
C3198      S3200   1.806       .  S
S3199      H3202   1.407       .  S
S3200      H3201   1.405       .  S
C3205      C3206   1.420       .  A
C3205      C3210   1.412       .  A
C3206      C3207   1.403       .  A
C3206      H3215   1.081       .  S
C3207      C3208   1.405       .  A
C3207      S3211   1.802       .  S
C3208      C3209   1.412       .  A
C3209      C3210   1.416       .  A
C3209      H3216   1.082       .  S
C3210      S3212   1.804       .  S
S3211      H3214   1.405       .  S
S3212      H3213   1.407       .  S
C3217      C3218   1.412       .  A
C3217      C3222   1.413       .  A
C3218      C3219   1.400       .  A
C3218      H3227   1.085       .  S
C3219      C3220   1.407       .  A
C3219      S3223   1.802       .  S
C3220      C3221   1.410       .  A
C3221      C3222   1.409       .  A
C3221      H3228   1.084       .  S
C3222      S3224   1.803       .  S
S3223      H3226   1.405       .  S
S3224      H3225   1.402       .  S
C3229      C3230   1.424       .  A
C3229      C3234   1.408       .  A
C3230      C3231   1.397       .  A
C3230      H3239   1.081       .  S
C3231      C3232   1.400       .  A
C3231      S3235   1.802       .  S
C3232      C3233   1.414       .  A
C3233      C3234   1.402       .  A
C3233      H3240   1.076       .  S
C3234      S3236   1.809       .  S
S3235      H3238   1.406       .  S
S3236      H3237   1.407       .  S
C3241      C3242   1.402       .  A
C3241      C3246   1.433       .  A
C3242      C3243   1.410       .  A
C3242      H3251   1.082       .  S
C3243      C3244   1.429       .  A
C3243      S3247   1.813       .  S
C3244      C3245   1.399       .  A
C3245      C3246   1.416       .  A
C3245      H3252   1.082       .  S
C3246      S3248   1.809       .  S
S3247      H3250   1.407       .  S
S3248      H3249   1.406       .  S
C3253      C3254   1.412       .  A
C3253      C3258   1.401       .  A
C3254      C3255   1.407       .  A
C3254      H3263   1.083       .  S
C3255      C3256   1.402       .  A
C3255      S3259   1.803       .  S
C3256      C3257   1.411       .  A
C3257      C3258   1.395       .  A
C3257      H3264   1.084       .  S
C3258      S3260   1.802       .  S
S3259      H3262   1.407       .  S
S3260      H3261   1.405       .  S
C3265      C3266   1.414       .  A
C3265      C3270   1.400       .  A
C3266      C3267   1.403       .  A
C3266      H3275   1.081       .  S
C3267      C3268   1.399       .  A
C3267      S3271   1.804       .  S
C3268      C3269   1.410       .  A
C3269      C3270   1.395       .  A
C3269      H3276   1.082       .  S
C3270      S3272   1.800       .  S
S3271      H3274   1.407       .  S
S3272      H3273   1.407       .  S
C3277      C3278   1.418       .  A
C3277      C3282   1.414       .  A
C3278      C3279   1.401       .  A
C3278      H3287   1.083       .  S
C3279      C3280   1.403       .  A
C3279      S3283   1.800       .  S
C3280      C3281   1.412       .  A
C3281      C3282   1.408       .  A
C3281      H3288   1.081       .  S
C3282      S3284   1.807       .  S
S3283      H3286   1.407       .  S
S3284      H3285   1.407       .  S
C3289      C3290   1.413       .  A
C3289      C3294   1.401       .  A
C3290      C3291   1.407       .  A
C3290      H3299   1.083       .  S
C3291      C3292   1.410       .  A
C3291      S3295   1.802       .  S
C3292      C3293   1.411       .  A
C3293      C3294   1.394       .  A
C3293      H3300   1.084       .  S
C3294      S3296   1.802       .  S
S3295      H3298   1.406       .  S
S3296      H3297   1.406       .  S
O3301     Zr3313   2.529       .  S
O3301      C3303   1.307       .  A
O3302      C3303   1.271       .  A
C3303      C3901   1.498       .  S
O3304     Zr3316   2.426       .  S
O3304      C3306   1.280       .  A
O3305     Zr3340   2.456       .  S
O3305      C3306   1.290       .  A
C3306      C3925   1.478       .  S
O3307     Zr3316   2.408       .  S
O3307      C3309   1.279       .  A
O3308      C3309   1.294       .  A
C3309      C3952   1.495       .  S
O3310     Zr3313   2.557       .  S
O3310      C3312   1.312       .  A
O3311     Zr3340   2.319       .  S
O3311      C3312   1.271       .  A
C3312      C3892   1.487       .  S
Zr3313     O3314   2.435       .  S
Zr3313     O3315   2.434       .  S
Zr3313     O3319   2.284       .  S
Zr3313     O3320   2.351       .  S
O3314      H3357   0.990       .  S
O3315      H3356   0.990       .  S
O3315      H3360   0.990       .  S
Zr3316     O3317   2.446       .  S
Zr3316     O3318   2.427       .  S
Zr3316     O3319   2.279       .  S
Zr3316     O3320   2.352       .  S
Zr3316     O3344   2.389       .  S
Zr3316     O3346   2.375       .  S
O3317      H3358   0.990       .  S
O3317      H3361   0.989       .  S
O3318      H3351   0.990       .  S
O3320     Zr3340   2.366       .  S
O3320      H3347   0.956       .  S
O3321     Zr3333   2.505       .  S
O3321      C3323   1.284       .  A
O3322      C3323   1.260       .  A
C3323      C3865   1.502       .  S
O3324     Zr3336   2.426       .  S
O3324      C3326   1.284       .  A
O3325     Zr3339   2.452       .  S
O3325      C3326   1.291       .  A
C3326      C3937   1.488       .  S
O3327     Zr3336   2.448       .  S
O3327      C3329   1.288       .  A
O3328      C3329   1.285       .  A
C3329      C3913   1.469       .  S
O3330     Zr3333   2.497       .  S
O3330      C3332   1.298       .  A
O3331     Zr3339   2.358       .  S
O3331      C3332   1.275       .  A
C3332      C3877   1.498       .  S
Zr3333     O3334   2.435       .  S
Zr3333     O3335   2.434       .  S
Zr3333     O3341   2.382       .  S
Zr3333     O3342   2.364       .  S
Zr3333     O3345   2.388       .  S
Zr3333     O3343   2.390       .  S
O3334      H3354   0.990       .  S
O3334      H3359   0.990       .  S
O3335      H3355   0.990       .  S
Zr3336     O3337   2.438       .  S
Zr3336     O3338   2.430       .  S
Zr3336     O3342   2.370       .  S
Zr3336     O3341   2.364       .  S
O3337      H3353   0.991       .  S
O3338      H3352   0.990       .  S
O3338      H3362   0.990       .  S
Zr3339     O3342   2.365       .  S
Zr3339     O3345   2.402       .  S
Zr3340     O3346   2.376       .  S
O3341      H3349   0.958       .  S
O3344      H3348   0.966       .  S
O3345      H3350   0.966       .  S
O3363     Zr3375   2.392       .  S
O3363      C3365   1.279       .  A
O3364      C3365   1.296       .  A
C3365      C3853   1.471       .  S
O3366     Zr3378   2.534       .  S
O3366      C3368   1.307       .  A
O3367      C3368   1.275       .  A
C3368      C3769   1.492       .  S
O3369     Zr3378   2.567       .  S
O3369      C3371   1.312       .  A
O3370     Zr3401   2.333       .  S
C3371      C3784   1.498       .  S
O3372     Zr3375   2.428       .  S
O3372      C3374   1.276       .  A
O3373      C3374   1.285       .  A
C3374      C3829   1.492       .  S
Zr3375     O3376   2.445       .  S
Zr3375     O3377   2.438       .  S
Zr3375     O3381   2.369       .  S
Zr3375     O3382   2.399       .  S
O3376      H3419   0.989       .  S
O3377      H3418   0.989       .  S
O3377      H3422   0.986       .  S
Zr3378     O3379   2.436       .  S
Zr3378     O3380   2.434       .  S
Zr3378     O3382   2.383       .  S
Zr3378     O3381   2.359       .  S
O3379      H3420   0.990       .  S
O3379      H3423   0.990       .  S
O3380      H3413   0.990       .  S
O3382      H3409   0.960       .  S
O3383     Zr3395   2.412       .  S
O3383      C3385   1.281       .  A
O3384     Zr3402   2.471       .  S
O3384      C3385   1.293       .  A
C3385      C3817   1.486       .  S
O3386     Zr3398   2.550       .  S
O3386      C3388   1.309       .  A
O3387     Zr3401   2.376   1_556  S
O3387      C3388   1.277       .  A
C3388      C3808   1.504       .  S
O3389     Zr3398   2.549       .  S
O3389      C3391   1.310       .  A
O3390     Zr3402   2.344       .  S
O3390      C3391   1.272       .  A
C3391      C3793   1.487       .  S
O3392     Zr3395   2.383       .  S
O3392      C3394   1.275       .  A
O3393     Zr3401   2.459   1_556  S
O3393      C3394   1.291       .  A
C3394      C3841   1.477       .  S
Zr3395     O3396   2.443       .  S
Zr3395     O3397   2.430       .  S
Zr3395     O3404   2.277       .  S
Zr3395     O3403   2.375       .  S
Zr3395     O3407   2.374       .  S
Zr3395     O3405   2.372       .  S
O3396      H3416   0.990       .  S
O3396      H3421   0.990       .  S
O3397      H3417   0.991       .  S
Zr3398     O3399   2.433       .  S
Zr3398     O3400   2.435       .  S
Zr3398     O3404   2.285       .  S
Zr3398     O3403   2.358       .  S
Zr3398     O3408   2.376   1_556  S
Zr3398     O3406   2.374   1_556  S
O3399      H3415   0.990       .  S
O3400      H3414   0.990       .  S
O3400      H3424   0.990       .  S
Zr3401     O3404   2.253   1_554  S
Zr3401     O3406   2.408       .  S
Zr3401     O3407   2.377   1_554  S
Zr3402     O3403   2.382       .  S
Zr3402     O3405   2.388       .  S
Zr3402     O3408   2.420   1_556  S
O3403      H3411   0.961       .  S
O3406      H3410   0.966       .  S
O3407      H3412   0.965       .  S
O3425     Zr3437   2.534       .  S
O3425      C3427   1.301       .  A
O3426     Zr4783   2.357   1_545  S
O3426      C3427   1.261       .  A
C3427      C3757   1.502       .  S
O3428     Zr3440   2.424       .  S
O3428      C3430   1.282       .  A
O3429     Zr3464   2.485   1_545  S
O3429      C3430   1.297       .  A
C3430      C3781   1.504       .  S
O3431     Zr3440   2.389       .  S
O3431      C3433   1.274       .  A
O3432     Zr4783   2.470   1_545  S
O3432      C3433   1.292       .  A
C3433      C3904   1.483       .  S
O3434     Zr3437   2.555       .  S
O3434      C3436   1.311       .  A
O3435     Zr3464   2.336   1_545  S
O3435      C3436   1.266       .  A
C3436      C3748   1.512       .  S
Zr3437     O3438   2.435       .  S
Zr3437     O3439   2.436       .  S
Zr3437     O3443   2.296       .  S
Zr3437     O3444   2.353       .  S
Zr3437     O3467   2.375   1_545  S
Zr3437     O4789   2.374       .  S
O3438      H3481   0.990       .  S
O3439      H3480   0.990       .  S
O3439      H3484   0.990       .  S
Zr3440     O3441   2.444       .  S
Zr3440     O3442   2.430       .  S
Zr3440     O3443   2.277       .  S
Zr3440     O3444   2.377       .  S
Zr3440     O3468   2.381   1_545  S
Zr3440     O3470   2.386   1_545  S
O3441      H3482   0.990       .  S
O3441      H3485   0.990       .  S
O3442      H3475   0.989       .  S
O3443     Zr4783   2.259   1_545  S
O3444     Zr3464   2.384   1_545  S
O3444      H3471   0.961       .  S
O3445     Zr3457   2.524       .  S
O3445      C3447   1.305       .  A
O3446     Zr4784   2.388       .  S
O3446      C3447   1.279       .  A
C3447      C3721   1.490       .  S
O3448     Zr3460   2.379       .  S
O3448      C3450   1.268       .  A
O3449     Zr3463   2.498       .  S
O3449      C3450   1.295       .  A
C3450      C3889   1.495       .  S
O3451     Zr3460   2.401       .  S
O3451      C3453   1.279       .  A
O3452     Zr4784   2.497       .  S
O3452      C3453   1.299       .  A
C3453      C3772   1.518       .  S
O3454     Zr3457   2.560       .  S
O3454      C3456   1.312       .  A
O3455     Zr3463   2.320       .  S
O3455      C3456   1.270       .  A
C3456      C3733   1.484       .  S
Zr3457     O3458   2.434       .  S
Zr3457     O3459   2.438       .  S
Zr3457     O3466   2.261       .  S
Zr3457     O3465   2.389       .  S
Zr3457     O3469   2.364       .  S
Zr3457     O4787   2.374       .  S
O3458      H3478   0.990       .  S
O3458      H3483   0.989       .  S
O3459      H3479   0.990       .  S
Zr3460     O3461   2.438       .  S
Zr3460     O3462   2.444       .  S
Zr3460     O3466   2.252       .  S
Zr3460     O3465   2.373       .  S
Zr3460     O4790   2.381       .  S
Zr3460     O4788   2.390       .  S
O3461      H3477   0.990       .  S
O3462      H3476   0.988       .  S
O3462      H3486   0.990       .  S
Zr3463     O4746   2.355       .  S
Zr3463     O4752   2.486       .  S
Zr3463     O4763   2.255       .  S
Zr3463     O3466   2.230       .  S
Zr3463     O4788   2.377       .  S
Zr3463     O3469   2.426       .  S
Zr3464     O4766   2.374       .  S
Zr3464     O4772   2.475       .  S
Zr3464     O4785   2.382       .  S
Zr3464     O3467   2.414       .  S
Zr3464     O3470   2.378       .  S
O3465     Zr4784   2.385       .  S
O3465      H3473   0.964       .  S
O3467     Zr4777   2.376       .  S
O3468     Zr4780   2.392       .  S
O3468     Zr4783   2.376       .  S
O3468      H3472   0.965       .  S
O3469     Zr4757   2.372       .  S
O3469      H3474   0.966       .  S
O3470     Zr4780   2.393       .  S
O3487     Zr3499   2.402       .  S
O3487      C3489   1.279       .  A
O3488     Zr4845   2.448   1_545  S
O3488      C3489   1.288       .  A
C3489      C3880   1.475       .  S
O3490     Zr3502   2.547       .  S
O3490      C3492   1.309       .  A
O3491     Zr4846   2.376   1_545  S
O3491      C3492   1.279       .  A
C3492      C3700   1.520       .  S
O3493     Zr3502   2.555       .  S
O3493      C3495   1.309       .  A
O3494     Zr4845   2.324   1_545  S
O3494      C3495   1.268       .  A
C3495      C3712   1.497       .  S
O3496     Zr3499   2.395       .  S
O3496      C3498   1.276       .  A
O3497     Zr4846   2.520   1_545  S
O3497      C3498   1.304       .  A
C3498      C3805   1.498       .  S
Zr3499     O3500   2.438       .  S
Zr3499     O3501   2.438       .  S
Zr3499     O3505   2.371       .  S
Zr3499     O3506   2.390       .  S
Zr3499     O4849   2.394   1_545  S
Zr3499     O4851   2.382   1_545  S
O3500      H3543   0.991       .  S
O3501      H3542   0.990       .  S
O3501      H3546   0.989       .  S
Zr3502     O3503   2.434       .  S
Zr3502     O3504   2.435       .  S
Zr3502     O3506   2.390       .  S
Zr3502     O3505   2.383       .  S
Zr3502     O4850   2.371   1_545  S
Zr3502     O4852   2.367   1_545  S
O3503      H3544   0.990       .  S
O3503      H3547   0.990       .  S
O3504      H3537   0.990       .  S
O3505     Zr4845   2.365   1_545  S
O3506     Zr4846   2.384   1_545  S
O3506      H3533   0.964       .  S
O3507     Zr3519   2.388       .  S
O3507      C3509   1.275       .  A
O3508     Zr3526   2.507       .  S
O3508      C3509   1.300       .  A
C3509      C3796   1.512       .  S
O3510     Zr3522   2.595       .  S
O3510      C3512   1.320       .  A
O3511     Zr3525   2.314       .  S
O3511      C3512   1.264       .  A
C3512      C3685   1.508       .  S
O3513     Zr3522   2.556       .  S
O3513      C3515   1.312       .  A
O3514     Zr3526   2.365       .  S
O3514      C3515   1.277       .  A
C3515      C3673   1.502       .  S
O3516     Zr3519   2.375       .  S
O3516      C3518   1.271       .  A
O3517     Zr3525   2.471       .  S
O3517      C3518   1.292       .  A
C3518      C3868   1.473       .  S
Zr3519     O3520   2.446       .  S
Zr3519     O3521   2.435       .  S
Zr3519     O3528   2.273       .  S
Zr3519     O3527   2.375       .  S
Zr3519     O3531   2.368       .  S
Zr3519     O3529   2.378       .  S
O3520      H3540   0.991       .  S
O3520      H3545   0.990       .  S
O3521      H3541   0.990       .  S
Zr3522     O3523   2.436       .  S
Zr3522     O3524   2.439       .  S
Zr3522     O3528   2.270       .  S
Zr3522     O3527   2.381       .  S
Zr3522     O3532   2.385       .  S
Zr3522     O3530   2.361       .  S
O3523      H3539   0.990       .  S
O3524      H3538   0.990       .  S
O3524      H3548   0.989       .  S
Zr3525     O4808   2.451       .  S
Zr3525     O4814   2.357       .  S
Zr3525     O4825   2.258       .  S
Zr3525     O3528   2.246       .  S
Zr3525     O3530   2.409       .  S
Zr3525     O3531   2.364       .  S
Zr3526     O4811   2.367       .  S
Zr3526     O4817   2.529       .  S
Zr3526     O4826   2.384       .  S
Zr3526     O3527   2.394       .  S
Zr3526     O3529   2.377       .  S
Zr3526     O3532   2.429       .  S
O3527      H3535   0.963       .  S
O3529     Zr4819   2.394       .  S
O3530     Zr4822   2.378       .  S
O3530      H3534   0.966       .  S
O3531     Zr4819   2.387       .  S
O3531      H3536   0.966       .  S
O3532     Zr4822   2.367       .  S
O3549      C3551   1.311       .  A
O3550     Zr3587   2.321       .  S
O3550      C3551   1.272       .  A
C3551      C3760   1.491       .  S
O3552     Zr3564   2.437       .  S
O3552      C3554   1.276       .  A
O3553     Zr3588   2.475       .  S
O3553      C3554   1.284       .  A
C3554      C3856   1.502       .  S
O3555      C3557   1.283       .  A
O3556     Zr3587   2.496       .  S
O3556      C3557   1.298       .  A
C3557      C3949   1.488       .  S
O3558     Zr3561   2.549       .  S
O3558      C3560   1.311       .  A
O3559     Zr3588   2.343       .  S
O3559      C3560   1.267       .  A
C3560      C3745   1.507       .  S
Zr3561     O3562   2.435       .  S
Zr3561     O3563   2.433       .  S
Zr3561     O3568   2.365       .  S
Zr3561     O3591   2.377       .  S
O3563      H3608   0.990       .  S
Zr3564     O3565   2.449       .  S
Zr3564     O3566   2.439       .  S
Zr3564     O3568   2.399       .  S
Zr3564     O3594   2.393       .  S
O3565      H3606   0.990       .  S
O3565      H3609   0.990       .  S
O3566      H3599   0.990   1_655  S
O3567     Zr3587   2.347       .  S
O3568     Zr3588   2.366       .  S
O3568      H3595   0.949       .  S
O3569     Zr3581   2.547       .  S
O3569      C3571   1.309       .  A
O3570     Zr3588   2.359       .  S
O3570      C3571   1.274       .  A
C3571      C3697   1.500       .  S
O3572      C3574   1.268       .  A
O3573     Zr3587   2.491       .  S
O3573      C3574   1.290       .  A
C3574      C3940   1.496       .  S
O3575     Zr3584   2.404       .  S
O3575      C3577   1.280       .  A
O3576     Zr3588   2.457       .  S
O3576      C3577   1.291       .  A
C3577      C3844   1.471       .  S
O3578      C3580   1.308       .  A
O3579     Zr3587   2.361       .  S
O3579      C3580   1.274       .  A
C3580      C3709   1.489       .  S
Zr3581     O3582   2.435       .  S
Zr3581     O3583   2.432       .  S
Zr3581     O3589   2.373       .  S
Zr3581     O3591   2.370       .  S
O3582      H3602   0.990       .  S
O3582      H3607   0.989       .  S
O3583      H3603   0.990       .  S
Zr3584     O3585   2.441       .  S
Zr3584     O3586   2.439       .  S
Zr3584     O3589   2.386       .  S
Zr3584     O3594   2.386       .  S
O3585      H3601   0.990   1_655  S
O3586      H3600   0.990       .  S
O3586      H3610   0.990   1_655  S
Zr3587     O3590   2.370       .  S
Zr3587     O3592   2.377       .  S
Zr3587     O3593   2.418       .  S
Zr3588     O3589   2.373       .  S
Zr3588     O3591   2.408       .  S
Zr3588     O3594   2.379       .  S
O3589      H3597   0.963       .  S
O3592      H3596   0.965       .  S
O3593      H3598   0.966       .  S
O3611      C3613   1.281       .  A
O3612     Zr3649   2.474       .  S
O3612      C3613   1.294       .  A
C3613      C3928   1.475       .  S
O3614     Zr3626   2.527       .  S
O3614      C3616   1.304       .  A
O3615     Zr3650   2.377       .  S
O3615      C3616   1.277       .  A
C3616      C3724   1.491       .  S
O3617      C3619   1.308       .  A
O3618     Zr3649   2.324       .  S
O3618      C3619   1.268       .  A
C3619      C3736   1.485       .  S
O3620     Zr3623   2.420       .  S
O3620      C3622   1.273       .  A
O3621     Zr3650   2.454       .  S
O3621      C3622   1.282       .  A
C3622      C3832   1.488       .  S
Zr3623     O3624   2.435       .  S
Zr3623     O3625   2.428       .  S
Zr3623     O3630   2.393       .  S
Zr3623     O3653   2.381       .  S
O3625      H3666   0.990   1_655  S
O3625      H3670   0.988       .  S
Zr3626     O3627   2.437       .  S
Zr3626     O3628   2.434       .  S
Zr3626     O3630   2.379       .  S
Zr3626     O3656   2.380       .  S
O3627      H3668   0.990       .  S
O3627      H3671   0.990       .  S
O3629     Zr3649   2.336       .  S
O3630     Zr3650   2.382       .  S
O3630      H3657   0.960       .  S
O3631     Zr3643   2.427       .  S
O3631      C3633   1.284       .  A
O3632     Zr3650   2.446       .  S
O3632      C3633   1.289       .  A
C3633      C3820   1.470       .  S
O3634      C3636   1.314       .  A
O3635     Zr3649   2.336       .  S
O3635      C3636   1.267       .  A
C3636      C3688   1.508       .  S
O3637     Zr3646   2.555       .  S
O3637      C3639   1.311       .  A
O3638     Zr3650   2.344       .  S
O3638      C3639   1.272       .  A
C3639      C3676   1.500       .  S
O3640      C3642   1.280       .  A
O3641     Zr3649   2.458       .  S
O3641      C3642   1.290       .  A
C3642      C3916   1.474       .  S
Zr3643     O3644   2.441       .  S
Zr3643     O3645   2.437       .  S
Zr3643     O3651   2.383       .  S
Zr3643     O3653   2.371       .  S
O3644      H3664   0.990       .  S
O3644      H3669   0.991       .  S
O3645      H3665   0.990       .  S
Zr3646     O3647   2.435       .  S
Zr3646     O3648   2.430       .  S
Zr3646     O3651   2.364       .  S
Zr3646     O3656   2.384       .  S
O3647      H3663   0.990       .  S
O3648      H3662   0.990       .  S
O3648      H3672   0.990       .  S
Zr3649     O3652   2.349       .  S
Zr3649     O3654   2.406       .  S
Zr3649     O3655   2.371       .  S
Zr3650     O3651   2.393       .  S
Zr3650     O3653   2.388       .  S
Zr3650     O3656   2.407       .  S
O3651      H3659   0.962       .  S
O3654      H3658   0.966       .  S
O3655      H3660   0.966       .  S
C3673      C3674   1.420       .  A
C3673      C3678   1.408       .  A
C3674      C3675   1.412       .  A
C3674      H3683   1.081       .  S
C3675      C3676   1.402       .  A
C3675      S3679   1.797       .  S
C3676      C3677   1.419       .  A
C3677      C3678   1.406       .  A
C3677      H3684   1.083       .  S
C3678      S3680   1.801       .  S
S3679      H3682   1.405       .  S
S3680      H3681   1.407       .  S
C3685      C3686   1.395       .  A
C3685      C3690   1.438       .  A
C3686      C3687   1.414       .  A
C3686      H3695   1.082       .  S
C3687      C3688   1.438       .  A
C3687      S3691   1.807       .  S
C3688      C3689   1.388       .  A
C3689      C3690   1.402       .  A
C3689      H3696   1.083       .  S
C3690      S3692   1.802       .  S
S3691      H3694   1.406       .  S
S3692      H3693   1.407       .  S
C3697      C3698   1.417       .  A
C3697      C3702   1.404       .  A
C3698      C3699   1.417       .  A
C3698      H3707   1.083       .  S
C3699      C3700   1.415       .  A
C3699      S3703   1.805       .  S
C3700      C3701   1.422       .  A
C3701      C3702   1.405       .  A
C3701      H3708   1.083       .  S
C3702      S3704   1.797       .  S
S3703      H3706   1.408       .  S
S3704      H3705   1.406       .  S
C3709      C3710   1.418       .  A
C3709      C3714   1.403       .  A
C3710      C3711   1.415       .  A
C3710      H3719   1.084       .  S
C3711      C3712   1.412       .  A
C3711      S5035   1.800       .  S
C3712      C3713   1.417       .  A
C3713      C3714   1.400       .  A
C3713      H3720   1.083       .  S
C3714      S3716   1.805       .  S
S3715      C5031   1.803       .  S
S3715      H3718   1.405       .  S
S3716      H3717   1.405       .  S
C3721      C3722   1.411       .  A
C3721      C3726   1.414       .  A
C3722      C3723   1.411       .  A
C3722      H3731   1.084       .  S
C3723      C3724   1.414       .  A
C3723      S3727   1.805       .  S
C3724      C3725   1.408       .  A
C3725      C3726   1.406       .  A
C3725      H3732   1.082       .  S
C3726      S3728   1.806       .  S
S3727      H3730   1.405       .  S
S3728      H3729   1.402       .  S
C3733      C3734   1.416       .  A
C3733      C3738   1.405       .  A
C3734      C3735   1.409       .  A
C3734      H3743   1.084       .  S
C3735      C3736   1.411       .  A
C3735      S3739   1.800       .  S
C3736      C3737   1.414       .  A
C3737      C3738   1.403       .  A
C3737      H3744   1.083       .  S
C3738      S3740   1.796       .  S
S3739      H3742   1.405       .  S
S3740      H3741   1.405       .  S
C3745      C3746   1.391       .  A
C3745      C3750   1.439       .  A
C3746      C3747   1.403       .  A
C3746      H3755   1.082       .  S
C3747      C3748   1.441       .  A
C3747      S3751   1.815       .  S
C3748      C3749   1.397       .  A
C3749      C3750   1.410       .  A
C3749      H3756   1.082       .  S
C3750      S3752   1.816       .  S
S3751      H3754   1.406       .  S
S3752      H3753   1.406       .  S
C3757      C3758   1.424       .  A
C3757      C3762   1.406       .  A
C3758      C3759   1.399       .  A
C3758      H3767   1.083       .  S
C3759      C3760   1.399       .  A
C3759      S3763   1.799       .  S
C3760      C3761   1.422       .  A
C3761      C3762   1.407       .  A
C3761      H3768   1.084       .  S
C3762      S3764   1.799       .  S
S3763      H3766   1.407       .  S
S3764      H3765   1.407       .  S
C3769      C3770   1.413       .  A
C3769      C3774   1.403       .  A
C3770      C3771   1.414       .  A
C3770      H3779   1.083       .  S
C3771      C3772   1.417       .  A
C3771      S3775   1.800       .  S
C3772      C3773   1.422       .  A
C3773      C3774   1.405       .  A
C3773      H3780   1.079       .  S
C3774      S3776   1.809       .  S
S3775      H3778   1.407       .  S
S3776      H3777   1.407       .  S
C3781      C3782   1.421       .  A
C3781      C3786   1.405       .  A
C3782      C3783   1.413       .  A
C3782      H3791   1.080       .  S
C3783      C3784   1.406       .  A
C3783      S3787   1.805       .  S
C3784      C3785   1.420       .  A
C3785      C3786   1.403       .  A
C3785      H3792   1.085       .  S
C3786      S3788   1.798       .  S
S3787      H3790   1.407       .  S
S3788      H3789   1.407       .  S
C3793      C3794   1.415       .  A
C3793      C3798   1.402       .  A
C3794      C3795   1.416       .  A
C3794      H3803   1.083       .  S
C3795      C3796   1.416       .  A
C3795      S3799   1.804       .  S
C3796      C3797   1.421       .  A
C3797      C3798   1.404       .  A
C3797      H3804   1.080       .  S
C3798      S3800   1.808       .  S
S3799      H3802   1.407       .  S
S3800      H3801   1.407       .  S
C3805      C3806   1.405       .  A
C3805      C3810   1.421       .  A
C3806      C3807   1.409       .  A
C3806      H3815   1.082       .  S
C3807      C3808   1.418       .  A
C3807      S3811   1.806   1_556  S
C3808      C3809   1.407       .  A
C3809      C3810   1.417       .  A
C3809      H3816   1.079       .  S
C3810      S3812   1.801       .  S
S3811      H3814   1.404       .  S
S3812      H3813   1.404       .  S
C3817      C3818   1.415       .  A
C3817      C3822   1.407       .  A
C3818      C3819   1.395       .  A
C3818      H3827   1.084       .  S
C3819      C3820   1.399       .  A
C3819      S3823   1.802       .  S
C3820      C3821   1.414       .  A
C3821      C3822   1.407       .  A
C3821      H3828   1.084       .  S
C3822      S3824   1.800       .  S
S3823      H3826   1.407       .  S
S3824      H3825   1.405       .  S
C3829      C3830   1.408       .  A
C3829      C3834   1.411       .  A
C3830      C3831   1.397       .  A
C3830      H3839   1.079       .  S
C3831      C3832   1.408       .  A
C3831      S3835   1.805       .  S
C3832      C3833   1.413       .  A
C3833      C3834   1.410       .  A
C3833      H3840   1.081       .  S
C3834      S3836   1.802       .  S
S3835      H3838   1.407       .  S
S3836      H3837   1.406       .  S
C3841      C3842   1.396       .  A
C3841      C3846   1.422       .  A
C3842      C3843   1.405       .  A
C3842      H3851   1.083       .  S
C3843      C3844   1.419       .  A
C3843      S3847   1.806       .  S
C3844      C3845   1.390       .  A
C3845      C3846   1.398       .  A
C3845      H3852   1.083       .  S
C3846      S3848   1.806       .  S
S3847      H3850   1.406       .  S
S3848      H3849   1.406       .  S
C3853      C3854   1.412       .  A
C3853      C3858   1.401       .  A
C3854      C3855   1.419       .  A
C3854      H3863   1.082       .  S
C3855      C3856   1.413       .  A
C3855      S3859   1.801       .  S
C3856      C3857   1.404       .  A
C3857      C3858   1.389       .  A
C3857      H3864   1.076       .  S
C3858      S3860   1.801       .  S
S3859      H3862   1.407       .  S
S3860      H3861   1.405       .  S
C3865      C3866   1.416       .  A
C3865      C3870   1.412       .  A
C3866      C3867   1.394       .  A
C3866      H3875   1.078       .  S
C3867      C3868   1.400       .  A
C3867      S3871   1.803       .  S
C3868      C3869   1.411       .  A
C3869      C3870   1.408       .  A
C3869      H3876   1.083       .  S
C3870      S3872   1.798       .  S
S3871      H3874   1.406       .  S
S3872      H3873   1.406       .  S
C3877      C3878   1.419       .  A
C3877      C3882   1.412       .  A
C3878      C3879   1.395       .  A
C3878      H3887   1.083       .  S
C3879      C3880   1.401       .  A
C3879      S3883   1.801       .  S
C3880      C3881   1.410       .  A
C3881      C3882   1.406       .  A
C3881      H3888   1.083       .  S
C3882      S3884   1.806       .  S
S3883      H3886   1.405       .  S
S3884      H3885   1.407       .  S
C3889      C3890   1.424       .  A
C3889      C3894   1.402       .  A
C3890      C3891   1.400       .  A
C3890      H3899   1.082       .  S
C3891      C3892   1.399       .  A
C3891      S3895   1.800       .  S
C3892      C3893   1.420       .  A
C3893      C3894   1.395       .  A
C3893      H3900   1.077       .  S
C3894      S3896   1.800       .  S
S3895      H3898   1.406       .  S
S3896      H3897   1.407       .  S
C3901      C3902   1.396       .  A
C3901      C3906   1.434       .  A
C3902      C3903   1.401       .  A
C3902      H3911   1.082       .  S
C3903      C3904   1.422       .  A
C3903      S3907   1.808       .  S
C3904      C3905   1.392       .  A
C3905      C3906   1.407       .  A
C3905      H3912   1.083       .  S
C3906      S3908   1.807       .  S
S3907      H3910   1.406       .  S
S3908      H3909   1.407       .  S
C3913      C3914   1.412       .  A
C3913      C3918   1.400       .  A
C3914      C3915   1.405       .  A
C3914      H3923   1.081       .  S
C3915      C3916   1.400       .  A
C3915      S3919   1.803       .  S
C3916      C3917   1.413       .  A
C3917      C3918   1.396       .  A
C3917      H3924   1.084       .  S
C3918      S3920   1.801       .  S
S3919      H3922   1.407       .  S
S3920      H3921   1.406       .  S
C3925      C3926   1.414       .  A
C3925      C3930   1.403       .  A
C3926      C3927   1.399       .  A
C3926      H3935   1.072       .  S
C3927      C3928   1.396       .  A
C3927      S3931   1.805       .  S
C3928      C3929   1.414       .  A
C3929      C3930   1.401       .  A
C3929      H3936   1.083       .  S
C3930      S3932   1.802       .  S
S3931      H3934   1.408       .  S
S3932      H3933   1.406       .  S
C3937      C3938   1.415       .  A
C3937      C3942   1.406       .  A
C3938      C3939   1.402       .  A
C3938      H3947   1.084       .  S
C3939      C3940   1.405       .  A
C3939      S3943   1.797       .  S
C3940      C3941   1.418       .  A
C3941      C3942   1.402       .  A
C3941      H3948   1.083       .  S
C3942      S3944   1.802       .  S
S3943      H3946   1.408       .  S
S3944      H3945   1.407       .  S
C3949      C3950   1.415       .  A
C3949      C3954   1.403       .  A
C3950      C3951   1.411       .  A
C3950      H3959   1.081       .  S
C3951      C3952   1.411       .  A
C3951      S3955   1.803       .  S
C3952      C3953   1.413       .  A
C3953      C3954   1.401       .  A
C3953      H3960   1.083       .  S
C3954      S3956   1.800       .  S
S3955      H3958   1.404       .  S
S3956      H3957   1.405       .  S
O3961     Zr3973   2.548       .  S
O3961      C3963   1.310       .  A
O3962     Zr4659   2.360   1_554  S
O3962      C3963   1.271       .  A
C3963      C4561   1.513       .  S
O3964     Zr3976   2.443       .  S
O3964      C3966   1.286       .  A
O3965     Zr4000   2.436   1_554  S
O3965      C3966   1.288       .  A
C3966      C4585   1.472       .  S
O3967     Zr3976   2.399       .  S
O3967      C3969   1.280       .  A
O3968     Zr4659   2.456   1_554  S
O3968      C3969   1.290       .  A
C3969      C4612   1.480       .  S
O3970     Zr3973   2.558       .  S
O3970      C3972   1.312       .  A
O3971     Zr4000   2.315   1_554  S
O3971      C3972   1.270       .  A
C3972      C4552   1.491       .  S
Zr3973     O3974   2.436       .  S
Zr3973     O3975   2.436       .  S
Zr3973     O3979   2.282       .  S
Zr3973     O3980   2.361       .  S
Zr3973     O4663   2.376   1_554  S
Zr3973     O4665   2.376   1_554  S
O3974      H4017   0.990       .  S
O3975      H4016   0.990       .  S
O3975      H4020   0.990       .  S
Zr3976     O3977   2.439       .  S
Zr3976     O3978   2.429       .  S
Zr3976     O3979   2.281       .  S
Zr3976     O3980   2.362       .  S
Zr3976     O4004   2.389   1_554  S
Zr3976     O4006   2.356   1_554  S
O3977      H4018   0.990       .  S
O3977      H4021   0.991       .  S
O3978      H4011   0.990       .  S
O3979     Zr4659   2.246   1_554  S
O3980     Zr4000   2.381   1_554  S
O3980      H4007   0.960       .  S
O3981     Zr3993   2.508       .  S
O3981      C3983   1.287       .  A
O3982     Zr4660   2.379       .  S
O3982      C3983   1.261       .  A
C3983      C4525   1.506       .  S
O3984     Zr3996   2.424       .  S
O3984      C3986   1.284       .  A
O3985     Zr3999   2.470       .  S
O3985      C3986   1.294       .  A
C3986      C4597   1.501       .  S
O3987     Zr3996   2.443       .  S
O3987      C3989   1.288       .  A
O3988     Zr4660   2.440       .  S
O3988      C3989   1.288       .  A
C3989      C4573   1.468       .  S
O3990     Zr3993   2.504       .  S
O3990      C3992   1.300       .  A
O3991     Zr3999   2.378       .  S
O3991      C3992   1.277       .  A
C3992      C4537   1.476       .  S
Zr3993     O3994   2.437       .  S
Zr3993     O3995   2.434       .  S
Zr3993     O4001   2.381       .  S
Zr3993     O4002   2.368       .  S
Zr3993     O4005   2.387       .  S
Zr3993     O4003   2.394       .  S
O3994      H4014   0.990       .  S
O3994      H4019   0.990       .  S
O3995      H4015   0.990       .  S
Zr3996     O3997   2.438       .  S
Zr3996     O3998   2.436       .  S
Zr3996     O4002   2.372       .  S
Zr3996     O4001   2.370       .  S
Zr3996     O4666   2.386       .  S
Zr3996     O4664   2.398       .  S
O3997      H4013   0.991       .  S
O3998      H4012   0.988       .  S
O3998      H4022   0.990       .  S
Zr3999     O4622   2.363       .  S
Zr3999     O4628   2.476       .  S
Zr3999     O4639   2.255       .  S
Zr3999     O4002   2.359       .  S
Zr3999     O4664   2.390       .  S
Zr3999     O4005   2.405       .  S
Zr4000     O4642   2.381       .  S
Zr4000     O4648   2.449       .  S
Zr4000     O4661   2.381       .  S
Zr4000     O4663   2.408       .  S
Zr4000     O4006   2.378       .  S
O4001     Zr4660   2.386       .  S
O4001      H4009   0.961       .  S
O4003     Zr4633   2.367       .  S
O4003     Zr4660   2.405       .  S
O4004     Zr4656   2.392       .  S
O4004     Zr4659   2.382       .  S
O4004      H4008   0.966       .  S
O4005     Zr4633   2.379       .  S
O4005      H4010   0.965       .  S
O4006     Zr4656   2.382       .  S
O4023     Zr4035   2.376       .  S
O4023      C4025   1.273       .  A
O4024     Zr4721   2.537       .  S
O4024      C4025   1.306       .  A
C4025      C4513   1.481       .  S
O4026     Zr4038   2.521       .  S
O4026      C4028   1.303       .  A
O4027     Zr4722   2.359       .  S
O4027      C4028   1.277       .  A
C4028      C4429   1.495       .  S
O4029     Zr4038   2.529       .  S
O4029      C4031   1.305       .  A
O4030     Zr4061   2.321       .  S
O4030      C4691   1.269       .  A
C4031      O4690   1.272       .  A
C4031      C4444   1.483       .  S
O4032     Zr4035   2.434       .  S
O4032      C4034   1.279       .  A
O4033     Zr4722   2.479       .  S
O4033      C4034   1.289       .  A
C4034      C4489   1.511       .  S
Zr4035     O4036   2.439       .  S
Zr4035     O4037   2.450       .  S
Zr4035     O4041   2.364       .  S
Zr4035     O4042   2.386       .  S
Zr4035     O4725   2.378   1_554  S
Zr4035     O4727   2.403   1_554  S
O4036      H4079   0.990       .  S
O4037      H4078   0.989       .  S
O4037      H4082   0.989       .  S
Zr4038     O4039   2.435       .  S
Zr4038     O4040   2.434       .  S
Zr4038     O4042   2.365       .  S
Zr4038     O4041   2.354       .  S
Zr4038     O4726   2.373       .  S
Zr4038     O4728   2.376       .  S
O4039      H4080   0.990       .  S
O4039      H4083   0.990       .  S
O4040      H4073   0.990       .  S
O4041     Zr4721   2.332       .  S
O4042     Zr4722   2.365       .  S
O4042      H4069   0.954       .  S
O4043     Zr4055   2.428       .  S
O4043      C4045   1.280       .  A
O4044     Zr4062   2.478       .  S
O4044      C4045   1.293       .  A
C4045      C4477   1.499       .  S
O4046     Zr4058   2.560       .  S
O4046      C4048   1.306       .  A
O4047     Zr4061   2.360       .  S
O4047      C4048   1.260       .  A
C4048      C4468   1.515       .  S
O4049     Zr4058   2.536       .  S
O4049      C4051   1.307       .  A
O4050     Zr4062   2.351       .  S
O4050      C4051   1.274       .  A
C4051      C4453   1.486       .  S
O4052     Zr4055   2.391       .  S
O4052      C4054   1.275       .  A
O4053     Zr4061   2.473       .  S
O4053      C4054   1.291       .  A
C4054      C4501   1.483       .  S
Zr4055     O4056   2.446       .  S
Zr4055     O4057   2.440       .  S
Zr4055     O4064   2.282       .  S
Zr4055     O4063   2.376       .  S
Zr4055     O4067   2.369       .  S
Zr4055     O4065   2.377       .  S
O4056      H4076   0.990       .  S
O4056      H4081   0.990       .  S
O4057      H4077   0.990       .  S
Zr4058     O4059   2.434       .  S
Zr4058     O4060   2.436       .  S
Zr4058     O4064   2.284       .  S
Zr4058     O4063   2.366       .  S
Zr4058     O4068   2.376       .  S
Zr4058     O4066   2.355       .  S
O4059      H4075   0.990       .  S
O4060      H4074   0.990       .  S
O4060      H4084   0.990       .  S
Zr4061     O4684   2.445       .  S
Zr4061     O4064   2.250       .  S
Zr4061     O4701   2.370       .  S
Zr4061     O4066   2.409       .  S
Zr4061     O4067   2.380       .  S
Zr4062     O4687   2.356       .  S
Zr4062     O4693   2.480       .  S
Zr4062     O4702   2.398       .  S
Zr4062     O4063   2.389       .  S
Zr4062     O4065   2.386       .  S
Zr4062     O4068   2.415       .  S
O4063      H4071   0.959       .  S
O4065     Zr4695   2.409       .  S
O4066     Zr4698   2.370       .  S
O4066      H4070   0.965       .  S
O4067     Zr4695   2.411       .  S
O4067      H4072   0.966       .  S
O4068     Zr4698   2.383       .  S
O4085     Zr4097   2.553       .  S
O4085      C4087   1.312       .  A
O4086      C4087   1.271       .  A
C4087      C4417   1.498       .  S
O4088     Zr4100   2.414       .  S
O4088      C4090   1.281       .  A
O4089     Zr4124   2.482       .  S
O4089      C4090   1.292       .  A
C4090      C4441   1.483       .  S
O4091     Zr4100   2.398       .  S
O4091      C4093   1.274       .  A
O4092      C4093   1.300       .  A
C4093      C4564   1.503       .  S
O4094     Zr4097   2.569       .  S
O4094      C4096   1.305       .  A
O4095     Zr4124   2.351       .  S
O4095      C4096   1.254       .  A
C4096      C4408   1.512       .  S
Zr4097     O4098   2.436       .  S
Zr4097     O4099   2.435       .  S
Zr4097     O4103   2.384       .  S
Zr4097     O4104   2.358       .  S
Zr4097     O4127   2.381       .  S
O4098      H4141   0.990       .  S
O4099      H4140   0.990       .  S
O4099      H4144   0.990       .  S
Zr4100     O4101   2.437       .  S
Zr4100     O4102   2.429       .  S
Zr4100     O4104   2.363       .  S
Zr4100     O4103   2.380       .  S
Zr4100     O4128   2.377       .  S
Zr4100     O4130   2.378       .  S
O4101      H4142   0.989       .  S
O4101      H4145   0.989       .  S
O4102      H4135   0.990       .  S
O4104     Zr4124   2.392       .  S
O4104      H4131   0.957       .  S
O4105     Zr4117   2.551       .  S
O4105      C4107   1.309       .  A
O4106      C4107   1.273       .  A
C4107      C4381   1.498       .  S
O4108     Zr4120   2.359       .  S
O4108      C4110   1.270       .  A
O4109     Zr4123   2.491       .  S
O4109      C4110   1.298       .  A
C4110      C4549   1.499       .  S
O4111     Zr4120   2.402       .  S
O4111      C4113   1.277       .  A
O4112      C4113   1.293       .  A
C4113      C4432   1.481       .  S
O4114     Zr4117   2.535       .  S
O4114      C4116   1.306       .  A
O4115     Zr4123   2.394       .  S
O4115      C4116   1.279       .  A
C4116      C4393   1.494       .  S
Zr4117     O4118   2.436       .  S
Zr4117     O4119   2.435       .  S
Zr4117     O4126   2.293       .  S
Zr4117     O4125   2.358       .  S
Zr4117     O4129   2.374       .  S
O4118      H4138   0.990       .  S
O4118      H4143   0.990       .  S
O4119      H4139   0.990       .  S
Zr4120     O4121   2.441       .  S
Zr4120     O4122   2.424       .  S
Zr4120     O4126   2.289       .  S
Zr4120     O4125   2.362       .  S
O4121      H4137   0.991       .  S
O4122      H4136   0.990       .  S
O4122      H4146   0.987   1_554  S
Zr4123     O4126   2.256       .  S
Zr4123     O4129   2.416       .  S
Zr4124     O4127   2.412       .  S
Zr4124     O4130   2.371       .  S
O4125      H4133   0.961       .  S
O4128      H4132   0.963       .  S
O4129      H4134   0.965       .  S
O4147     Zr4159   2.381       .  S
O4147      C4149   1.275       .  A
O4148      C4149   1.295       .  A
C4149      C4540   1.485       .  S
O4150     Zr4162   2.551       .  S
O4150      C4152   1.308       .  A
O4151      C4152   1.267       .  A
C4152      C4360   1.508       .  S
O4153     Zr4162   2.516       .  S
O4153      C4155   1.303       .  A
O4154      C4155   1.279       .  A
C4155      C4372   1.494       .  S
O4156     Zr4159   2.391       .  S
O4156      C4158   1.276       .  A
O4157      C4158   1.303       .  A
C4158      C4465   1.487       .  S
Zr4159     O4160   2.441       .  S
Zr4159     O4161   2.431       .  S
Zr4159     O4165   2.380       .  S
Zr4159     O4166   2.372       .  S
O4160      H4203   0.990       .  S
O4161      H4202   0.989       .  S
O4161      H4206   0.990       .  S
Zr4162     O4163   2.435       .  S
Zr4162     O4164   2.436       .  S
Zr4162     O4166   2.359       .  S
Zr4162     O4165   2.399       .  S
O4163      H4204   0.990       .  S
O4163      H4207   0.990       .  S
O4164      H4197   0.990       .  S
O4166      H4193   0.962       .  S
O4167     Zr4179   2.414       .  S
O4167      C4169   1.280       .  A
O4168     Zr4186   2.482       .  S
O4168      C4169   1.293       .  A
C4169      C4456   1.504       .  S
O4170     Zr4182   2.554       .  S
O4170      C4172   1.312       .  A
O4171     Zr4185   2.357       .  S
O4171      C4172   1.273       .  A
C4172      C4345   1.502       .  S
O4173     Zr4182   2.560       .  S
O4173      C4175   1.312       .  A
O4174     Zr4186   2.336       .  S
O4174      C4175   1.272       .  A
C4175      C4333   1.490       .  S
O4176     Zr4179   2.399       .  S
O4176      C4178   1.275       .  A
O4177     Zr4185   2.462       .  S
O4177      C4178   1.290       .  A
C4178      C4528   1.477       .  S
Zr4179     O4180   2.454       .  S
Zr4179     O4181   2.427       .  S
Zr4179     O4188   2.277       .  S
Zr4179     O4187   2.369       .  S
Zr4179     O4191   2.388       .  S
Zr4179     O4189   2.374       .  S
O4180      H4200   0.988       .  S
O4180      H4205   0.990       .  S
O4181      H4201   0.990       .  S
Zr4182     O4183   2.437       .  S
Zr4182     O4184   2.438       .  S
Zr4182     O4188   2.288       .  S
Zr4182     O4187   2.357       .  S
Zr4182     O4192   2.373       .  S
Zr4182     O4190   2.362       .  S
O4183      H4199   0.990       .  S
O4184      H4198   0.990       .  S
O4184      H4208   0.990       .  S
Zr4185     O4188   2.252       .  S
Zr4185     O4190   2.412       .  S
Zr4185     O4191   2.375       .  S
Zr4186     O4187   2.384       .  S
Zr4186     O4189   2.363       .  S
Zr4186     O4192   2.416       .  S
O4187      H4195   0.961       .  S
O4190      H4194   0.965       .  S
O4191      H4196   0.965       .  S
O4209      C4211   1.307       .  A
O4210     Zr4247   2.331       .  S
O4210      C4211   1.273       .  A
C4211      C4420   1.487       .  S
O4212     Zr4224   2.418       .  S
O4212      C4214   1.271       .  A
O4213     Zr4248   2.473       .  S
O4213      C4214   1.284       .  A
C4214      C4516   1.499       .  S
O4215      C4217   1.283       .  A
O4216     Zr4247   2.473       .  S
O4216      C4217   1.293       .  A
C4217      C4609   1.476       .  S
O4218     Zr4221   2.557       .  S
O4218      C4220   1.313       .  A
O4219     Zr4248   2.344       .  S
O4219      C4220   1.269       .  A
C4220      C4405   1.504       .  S
Zr4221     O4222   2.433       .  S
Zr4221     O4223   2.437       .  S
Zr4221     O4228   2.365       .  S
Zr4221     O4251   2.371       .  S
O4223      H4268   0.989       .  S
Zr4224     O4225   2.447       .  S
Zr4224     O4226   2.439   1_655  S
Zr4224     O4228   2.401       .  S
Zr4224     O4254   2.395       .  S
O4225      H4266   0.990       .  S
O4225      H4269   0.990       .  S
O4226      H4259   0.990       .  S
O4227     Zr4247   2.357       .  S
O4228     Zr4248   2.363       .  S
O4228      H4255   0.954       .  S
O4229     Zr4241   2.530       .  S
O4229      C4231   1.305       .  A
O4230     Zr4248   2.337       .  S
O4230      C4231   1.270       .  A
C4231      C4357   1.481       .  S
O4232      C4234   1.268       .  A
O4233     Zr4247   2.478       .  S
O4233      C4234   1.285       .  A
C4234      C4600   1.491       .  S
O4235     Zr4244   2.411       .  S
O4235      C4237   1.280       .  A
O4236     Zr4248   2.457       .  S
O4236      C4237   1.292       .  A
C4237      C4504   1.471       .  S
O4238      C4240   1.309       .  A
O4239     Zr4247   2.357       .  S
O4239      C4240   1.274       .  A
C4240      C4369   1.502       .  S
Zr4241     O4242   2.435       .  S
Zr4241     O4243   2.427       .  S
Zr4241     O4249   2.371       .  S
Zr4241     O4251   2.365       .  S
O4242      H4262   0.990       .  S
O4242      H4267   0.989   1_655  S
O4243      H4263   0.990       .  S
Zr4244     O4245   2.437   1_655  S
Zr4244     O4246   2.437   1_655  S
Zr4244     O4249   2.381       .  S
Zr4244     O4254   2.388       .  S
O4245      H4261   0.990       .  S
O4246      H4260   0.990   1_455  S
O4246      H4270   0.990       .  S
Zr4247     O4250   2.376       .  S
Zr4247     O4252   2.381       .  S
Zr4247     O4253   2.414       .  S
Zr4248     O4249   2.375       .  S
Zr4248     O4251   2.409       .  S
Zr4248     O4254   2.371       .  S
O4249      H4257   0.964       .  S
O4252      H4256   0.965       .  S
O4253      H4258   0.966       .  S
O4271      C4273   1.276       .  A
O4272     Zr4309   2.470       .  S
O4272      C4273   1.293       .  A
C4273      C4588   1.474       .  S
O4274     Zr4286   2.538       .  S
O4274      C4276   1.308       .  A
O4275     Zr4310   2.372       .  S
O4275      C4276   1.277       .  A
C4276      C4384   1.499       .  S
O4277      C4279   1.308       .  A
O4278     Zr4309   2.357       .  S
O4278      C4279   1.272       .  A
C4279      C4396   1.491       .  S
O4280     Zr4283   2.419       .  S
O4280      C4282   1.274       .  A
O4281     Zr4310   2.479       .  S
O4281      C4282   1.288       .  A
C4282      C4492   1.499       .  S
Zr4283     O4284   2.437       .  S
Zr4283     O4285   2.434   1_655  S
Zr4283     O4290   2.386       .  S
Zr4283     O4313   2.385       .  S
O4285      H4326   0.990       .  S
O4285      H4330   0.988   1_455  S
Zr4286     O4287   2.435       .  S
Zr4286     O4288   2.430       .  S
Zr4286     O4290   2.380       .  S
Zr4286     O4316   2.381       .  S
O4287      H4328   0.990       .  S
O4287      H4331   0.990       .  S
O4289     Zr4309   2.236       .  S
O4290     Zr4310   2.384       .  S
O4290      H4317   0.959       .  S
O4291     Zr4303   2.420       .  S
O4291      C4293   1.281       .  A
O4292     Zr4310   2.477       .  S
O4292      C4293   1.295       .  A
C4293      C4480   1.482       .  S
O4294      C4296   1.313       .  A
O4295     Zr4309   2.338       .  S
O4295      C4296   1.267       .  A
C4296      C4348   1.511       .  S
O4297     Zr4306   2.549       .  S
O4297      C4299   1.310       .  A
O4298     Zr4310   2.350       .  S
O4298      C4299   1.273       .  A
C4299      C4336   1.494       .  S
O4300      C4302   1.281       .  A
O4301     Zr4309   2.459       .  S
O4301      C4302   1.289       .  A
C4302      C4576   1.472       .  S
Zr4303     O4304   2.442   1_655  S
Zr4303     O4305   2.435   1_655  S
Zr4303     O4311   2.389       .  S
Zr4303     O4313   2.370       .  S
O4304      H4324   0.991   1_455  S
O4304      H4329   0.990   1_455  S
O4305      H4325   0.990   1_455  S
Zr4306     O4307   2.435       .  S
Zr4306     O4308   2.436       .  S
Zr4306     O4311   2.366       .  S
Zr4306     O4316   2.373       .  S
O4307      H4323   0.990       .  S
O4308      H4322   0.990       .  S
O4308      H4332   0.990   1_655  S
Zr4309     O4312   2.355       .  S
Zr4309     O4314   2.408       .  S
Zr4309     O4315   2.380       .  S
Zr4310     O4311   2.391       .  S
Zr4310     O4313   2.386       .  S
Zr4310     O4316   2.416       .  S
O4311      H4319   0.962       .  S
O4314      H4318   0.966       .  S
O4315      H4320   0.966       .  S
C4333      C4334   1.415       .  A
C4333      C4338   1.414       .  A
C4334      C4335   1.406       .  A
C4334      H4343   1.085       .  S
C4335      C4336   1.408       .  A
C4335      S4339   1.798       .  S
C4336      C4337   1.415       .  A
C4337      C4338   1.410       .  A
C4337      H4344   1.084       .  S
C4338      S4340   1.806       .  S
S4339      H4342   1.405       .  S
S4340      H4341   1.401       .  S
C4345      C4346   1.394       .  A
C4345      C4350   1.428       .  A
C4346      C4347   1.407       .  A
C4346      H4355   1.083       .  S
C4347      C4348   1.436       .  A
C4347      S4351   1.808       .  S
C4348      C4349   1.398       .  A
C4349      C4350   1.412       .  A
C4349      H4356   1.082       .  S
C4350      S4352   1.805       .  S
S4351      H4354   1.407       .  S
S4352      H4353   1.405       .  S
C4357      C4358   1.419       .  A
C4357      C4362   1.399       .  A
C4358      C4359   1.411       .  A
C4358      H4367   1.084       .  S
C4359      C4360   1.409       .  A
C4359      S4363   1.796       .  S
C4360      C4361   1.425       .  A
C4361      C4362   1.393       .  A
C4361      H4368   1.083       .  S
C4362      S4364   1.802       .  S
S4363      H4366   1.407       .  S
S4364      H4365   1.404       .  S
C4369      C4370   1.419       .  A
C4369      C4374   1.407       .  A
C4370      C4371   1.402       .  A
C4370      H4379   1.083       .  S
C4371      C4372   1.407       .  A
C4372      C4373   1.418       .  A
C4373      C4374   1.408       .  A
C4373      H4380   1.084       .  S
C4374      S4376   1.798       .  S
S4375      H4378   1.407       .  S
S4376      H4377   1.406       .  S
C4381      C4382   1.416       .  A
C4381      C4386   1.409       .  A
C4382      C4383   1.408       .  A
C4382      H4391   1.084       .  S
C4383      C4384   1.412       .  A
C4383      S4387   1.804       .  S
C4384      C4385   1.416       .  A
C4385      C4386   1.409       .  A
C4385      H4392   1.084       .  S
C4386      S4388   1.798       .  S
S4387      H4390   1.403       .  S
S4388      H4389   1.406       .  S
C4393      C4394   1.412       .  A
C4393      C4398   1.407       .  A
C4394      C4395   1.418       .  A
C4394      H4403   1.084       .  S
C4395      C4396   1.421       .  A
C4395      S4399   1.806       .  S
C4396      C4397   1.402       .  A
C4397      C4398   1.402       .  A
C4397      H4404   1.075       .  S
C4398      S4400   1.797       .  S
S4399      H4402   1.406       .  S
S4400      H4401   1.406       .  S
C4405      C4406   1.389       .  A
C4405      C4410   1.435       .  A
C4406      C4407   1.406       .  A
C4406      H4415   1.083       .  S
C4407      C4408   1.441       .  A
C4407      S4411   1.805       .  S
C4408      C4409   1.392       .  A
C4409      C4410   1.408       .  A
C4409      H4416   1.082       .  S
C4410      S4412   1.804       .  S
S4411      H4414   1.406       .  S
S4412      H4413   1.407       .  S
C4417      C4418   1.422       .  A
C4417      C4422   1.408       .  A
C4418      C4419   1.405       .  A
C4418      H4427   1.083       .  S
C4419      C4420   1.403       .  A
C4419      S4423   1.800       .  S
C4420      C4421   1.415       .  A
C4421      C4422   1.401       .  A
C4421      H4428   1.083       .  S
C4422      S4424   1.798       .  S
S4423      H4426   1.406       .  S
S4424      H4425   1.399       .  S
C4429      C4430   1.419       .  A
C4429      C4434   1.406       .  A
C4430      C4431   1.402       .  A
C4430      H4439   1.080       .  S
C4431      C4432   1.400       .  A
C4431      S4435   1.801       .  S
C4432      C4433   1.415       .  A
C4433      C4434   1.402       .  A
C4433      H4440   1.084       .  S
C4434      S4436   1.799       .  S
S4435      H4438   1.404       .  S
S4436      H4437   1.406       .  S
C4441      C4442   1.418       .  A
C4441      C4446   1.402       .  A
C4442      C4443   1.404       .  A
C4442      H4451   1.083       .  S
C4443      C4444   1.398       .  A
C4443      S4447   1.805       .  S
C4444      C4445   1.418       .  A
C4445      C4446   1.401       .  A
C4445      H4452   1.079       .  S
C4446      S4448   1.803       .  S
S4447      H4450   1.405       .  S
S4448      H4449   1.403       .  S
C4453      C4454   1.417       .  A
C4453      C4458   1.402       .  A
C4454      C4455   1.413       .  A
C4454      H4463   1.082       .  S
C4455      C4456   1.411       .  A
C4455      S4459   1.800       .  S
C4456      C4457   1.418       .  A
C4457      C4458   1.400       .  A
C4457      H4464   1.080       .  S
C4458      S4460   1.807       .  S
S4459      H4462   1.406       .  S
S4460      H4461   1.407       .  S
C4465      C4466   1.389       .  A
C4465      C4470   1.423       .  A
C4466      C4467   1.405       .  A
C4466      H4475   1.083       .  S
C4467      C4468   1.442       .  A
C4467      S4471   1.814       .  S
C4468      C4469   1.403       .  A
C4469      C4470   1.413       .  A
C4469      H4476   1.083       .  S
C4470      S4472   1.800       .  S
S4471      H4474   1.407       .  S
S4472      H4473   1.406       .  S
C4477      C4478   1.414       .  A
C4477      C4482   1.411       .  A
C4478      C4479   1.401       .  A
C4478      H4487   1.081       .  S
C4479      C4480   1.404       .  A
C4479      S4483   1.803       .  S
C4480      C4481   1.415       .  A
C4481      C4482   1.413       .  A
C4481      H4488   1.084       .  S
C4482      S4484   1.802       .  S
S4483      H4486   1.407       .  S
S4484      H4485   1.405       .  S
C4489      C4490   1.413       .  A
C4489      C4494   1.415       .  A
C4490      C4491   1.401       .  A
C4490      H4499   1.079       .  S
C4491      C4492   1.409       .  A
C4491      S4495   1.804       .  S
C4492      C4493   1.414       .  A
C4493      C4494   1.416       .  A
C4493      H4500   1.081       .  S
C4494      S4496   1.802       .  S
S4495      H4498   1.407       .  S
S4496      H4497   1.405       .  S
C4501      C4502   1.400       .  A
C4501      C4506   1.424       .  A
C4502      C4503   1.410       .  A
C4502      H4511   1.083       .  S
C4503      C4504   1.419       .  A
C4503      S4507   1.805       .  S
C4504      C4505   1.386       .  A
C4505      C4506   1.393       .  A
C4505      H4512   1.084       .  S
C4506      S4508   1.802       .  S
S4507      H4510   1.407       .  S
S4508      H4509   1.407       .  S
C4513      C4514   1.412       .  A
C4513      C4518   1.403       .  A
C4514      C4515   1.410       .  A
C4514      H4523   1.071       .  S
C4515      C4516   1.405       .  A
C4515      S4519   1.804       .  S
C4516      C4517   1.411       .  A
C4517      C4518   1.400       .  A
C4517      H4524   1.078       .  S
C4518      S4520   1.805       .  S
S4519      H4522   1.407       .  S
S4520      H4521   1.405       .  S
C4525      C4526   1.419       .  A
C4525      C4530   1.412       .  A
C4526      C4527   1.399       .  A
C4526      H4535   1.077       .  S
C4527      C4528   1.402       .  A
C4527      S4531   1.804       .  S
C4528      C4529   1.410       .  A
C4529      C4530   1.407       .  A
C4529      H4536   1.084       .  S
C4530      S4532   1.797       .  S
S4531      H4534   1.405       .  S
S4532      H4533   1.407       .  S
C4537      C4538   1.406       .  A
C4537      C4542   1.410       .  A
C4538      C4539   1.410       .  A
C4538      H4547   1.084       .  S
C4539      C4540   1.416       .  A
C4539      S4543   1.798       .  S
C4540      C4541   1.407       .  A
C4541      C4542   1.397       .  A
C4541      H4548   1.084       .  S
C4542      S4544   1.804       .  S
S4543      H4546   1.404       .  S
S4544      H4545   1.406       .  S
C4549      C4550   1.425       .  A
C4549      C4554   1.404       .  A
C4550      C4551   1.405       .  A
C4550      H4559   1.080       .  S
C4551      C4552   1.399       .  A
C4551      S4555   1.807       .  S
C4552      C4553   1.421       .  A
C4553      C4554   1.403       .  A
C4553      H4560   1.079       .  S
C4554      S4556   1.809       .  S
S4555      H4558   1.407       .  S
S4556      H4557   1.407       .  S
C4561      C4562   1.397       .  A
C4561      C4566   1.438       .  A
C4562      C4563   1.406       .  A
C4562      H4571   1.082       .  S
C4563      C4564   1.429       .  A
C4563      S4567   1.810       .  S
C4564      C4565   1.396       .  A
C4565      C4566   1.413       .  A
C4565      H4572   1.082       .  S
C4566      S4568   1.812       .  S
S4567      H4570   1.407       .  S
S4568      H4569   1.406       .  S
C4573      C4574   1.414       .  A
C4573      C4578   1.398       .  A
C4574      C4575   1.409       .  A
C4574      H4583   1.083       .  S
C4575      C4576   1.401       .  A
C4575      S4579   1.802       .  S
C4576      C4577   1.409       .  A
C4577      C4578   1.392       .  A
C4577      H4584   1.082       .  S
C4578      S4580   1.800       .  S
S4579      H4582   1.407       .  S
S4580      H4581   1.407       .  S
C4585      C4586   1.412       .  A
C4585      C4590   1.401       .  A
C4586      C4587   1.403       .  A
C4586      H4595   1.081       .  S
C4587      C4588   1.402       .  A
C4587      S4591   1.803       .  S
C4588      C4589   1.412       .  A
C4589      C4590   1.397       .  A
C4589      H4596   1.083       .  S
C4590      S4592   1.800       .  S
S4591      H4594   1.408       .  S
S4592      H4593   1.406       .  S
C4597      C4598   1.418       .  A
C4597      C4602   1.411       .  A
C4598      C4599   1.404       .  A
C4598      H4607   1.083       .  S
C4599      C4600   1.406       .  A
C4599      S4603   1.800       .  S
C4600      C4601   1.414       .  A
C4601      C4602   1.407       .  A
C4601      H4608   1.083       .  S
C4602      S4604   1.807       .  S
S4603      H4606   1.407       .  S
S4604      H4605   1.407       .  S
C4609      C4610   1.412       .  A
C4609      C4614   1.403       .  A
C4610      C4611   1.406       .  A
C4610      H4619   1.081       .  S
C4611      C4612   1.410       .  A
C4611      S4615   1.805       .  S
C4612      C4613   1.411       .  A
C4613      C4614   1.396       .  A
C4613      H4620   1.085       .  S
C4614      S4616   1.802       .  S
S4615      H4618   1.402       .  S
S4616      H4617   1.403       .  S
O4621     Zr4633   2.534       .  S
O4621      C4623   1.307       .  A
O4622      C4623   1.273       .  A
C4623      C5221   1.504       .  S
O4624     Zr4636   2.435       .  S
O4624      C4626   1.282       .  A
O4625     Zr4660   2.460       .  S
O4625      C4626   1.291       .  A
C4626      C5245   1.483       .  S
O4627     Zr4636   2.405       .  S
O4627      C4629   1.279       .  A
O4628      C4629   1.294       .  A
C4629      C5272   1.493       .  S
O4630     Zr4633   2.574       .  S
O4630      C4632   1.315       .  A
O4631     Zr4660   2.320       .  S
O4631      C4632   1.270       .  A
C4632      C5212   1.500       .  S
Zr4633     O4634   2.434       .  S
Zr4633     O4635   2.437       .  S
Zr4633     O4639   2.290       .  S
Zr4633     O4640   2.342       .  S
O4634      H4677   0.990       .  S
O4635      H4676   0.990       .  S
O4635      H4680   0.990       .  S
Zr4636     O4637   2.447       .  S
Zr4636     O4638   2.430       .  S
Zr4636     O4639   2.284       .  S
Zr4636     O4640   2.348       .  S
Zr4636     O4664   2.391       .  S
Zr4636     O4666   2.374       .  S
O4637      H4678   0.990       .  S
O4637      H4681   0.989       .  S
O4638      H4671   0.990       .  S
O4640     Zr4660   2.363       .  S
O4640      H4667   0.955       .  S
O4641     Zr4653   2.506       .  S
O4641      C4643   1.284       .  A
O4642      C4643   1.261       .  A
C4643      C5185   1.509       .  S
O4644     Zr4656   2.417       .  S
O4644      C4646   1.284       .  A
O4645     Zr4659   2.447       .  S
O4645      C4646   1.289       .  A
C4646      C5257   1.483       .  S
O4647     Zr4656   2.447       .  S
O4647      C4649   1.280       .  A
O4648      C4649   1.285       .  A
C4649      C5233   1.487       .  S
O4650     Zr4653   2.488       .  S
O4650      C4652   1.295       .  A
O4651     Zr4659   2.360       .  S
O4651      C4652   1.274       .  A
C4652      C5197   1.461       .  S
Zr4653     O4654   2.441       .  S
Zr4653     O4655   2.434       .  S
Zr4653     O4661   2.376       .  S
Zr4653     O4662   2.374       .  S
Zr4653     O4665   2.389       .  S
Zr4653     O4663   2.393       .  S
O4654      H4674   0.989       .  S
O4654      H4679   0.990       .  S
O4655      H4675   0.990       .  S
Zr4656     O4657   2.443       .  S
Zr4656     O4658   2.429       .  S
Zr4656     O4662   2.376       .  S
Zr4656     O4661   2.381       .  S
O4657      H4673   0.990       .  S
O4658      H4672   0.990       .  S
O4658      H4682   0.989       .  S
Zr4659     O4662   2.359       .  S
Zr4659     O4665   2.403       .  S
Zr4660     O4666   2.378       .  S
O4661      H4669   0.953       .  S
O4664      H4668   0.966       .  S
O4665      H4670   0.965       .  S
O4683     Zr4695   2.397       .  S
O4683      C4685   1.272       .  A
O4684      C4685   1.278       .  A
C4685      C5173   1.479       .  S
O4686     Zr4698   2.534       .  S
O4686      C4688   1.307       .  A
O4687      C4688   1.275       .  A
C4688      C5089   1.493       .  S
O4689     Zr4698   2.547       .  S
O4689      C4691   1.309       .  A
O4690     Zr4721   2.335       .  S
C4691      C5104   1.478       .  S
O4692     Zr4695   2.430       .  S
O4692      C4694   1.279       .  A
O4693      C4694   1.288       .  A
C4694      C5149   1.514       .  S
Zr4695     O4696   2.437       .  S
Zr4695     O4697   2.443       .  S
Zr4695     O4701   2.361       .  S
Zr4695     O4702   2.374       .  S
O4696      H4739   0.990       .  S
O4697      H4738   0.989       .  S
O4697      H4742   0.990       .  S
Zr4698     O4699   2.435       .  S
Zr4698     O4700   2.434       .  S
Zr4698     O4702   2.372       .  S
Zr4698     O4701   2.369       .  S
O4699      H4740   0.990       .  S
O4699      H4743   0.990       .  S
O4700      H4733   0.990       .  S
O4702      H4729   0.964       .  S
O4703     Zr4715   2.403       .  S
O4703      C4705   1.272       .  A
O4704     Zr4722   2.474   1_556  S
O4704      C4705   1.286       .  A
C4705      C5137   1.509       .  S
O4706     Zr4718   2.559       .  S
O4706      C4708   1.311       .  A
O4707     Zr4721   2.362   1_556  S
O4707      C4708   1.275       .  A
C4708      C5128   1.504       .  S
O4709     Zr4718   2.552       .  S
O4709      C4711   1.310       .  A
O4710     Zr4722   2.327   1_556  S
O4710      C4711   1.270       .  A
C4711      C5113   1.497       .  S
O4712     Zr4715   2.366       .  S
O4712      C4714   1.272       .  A
O4713     Zr4721   2.478   1_556  S
O4713      C4714   1.296       .  A
C4714      C5161   1.474       .  S
Zr4715     O4716   2.441       .  S
Zr4715     O4717   2.433       .  S
Zr4715     O4724   2.253       .  S
Zr4715     O4723   2.367       .  S
Zr4715     O4727   2.395       .  S
Zr4715     O4725   2.384       .  S
O4716      H4736   0.988       .  S
O4716      H4741   0.990       .  S
O4717      H4737   0.990       .  S
Zr4718     O4719   2.434       .  S
Zr4718     O4720   2.436       .  S
Zr4718     O4724   2.271       .  S
Zr4718     O4723   2.388       .  S
Zr4718     O4728   2.374   1_556  S
Zr4718     O4726   2.383   1_556  S
O4719      H4735   0.990       .  S
O4720      H4734   0.990       .  S
O4720      H4744   0.990       .  S
Zr4721     O4724   2.242   1_554  S
Zr4721     O4726   2.416       .  S
Zr4721     O4727   2.376   1_554  S
Zr4722     O4723   2.396   1_554  S
Zr4722     O4725   2.387   1_554  S
Zr4722     O4728   2.422       .  S
O4723      H4731   0.965       .  S
O4726      H4730   0.966       .  S
O4727      H4732   0.965       .  S
O4745     Zr4757   2.550       .  S
O4745      C4747   1.304       .  A
O4746      C4747   1.260       .  A
C4747      C5077   1.510       .  S
O4748     Zr4760   2.416       .  S
O4748      C4750   1.279       .  A
O4749     Zr4784   2.490       .  S
O4749      C4750   1.297       .  A
C4750      C5101   1.514       .  S
O4751     Zr4760   2.385       .  S
O4751      C4753   1.273       .  A
O4752      C4753   1.296       .  A
C4753      C5224   1.489       .  S
O4754     Zr4757   2.551       .  S
O4754      C4756   1.311       .  A
O4755     Zr4784   2.345       .  S
O4755      C4756   1.269       .  A
C4756      C5068   1.511       .  S
Zr4757     O4758   2.435       .  S
Zr4757     O4759   2.436       .  S
Zr4757     O4763   2.287       .  S
Zr4757     O4764   2.366       .  S
Zr4757     O4787   2.380       .  S
O4758      H4801   0.990       .  S
O4759      H4800   0.990       .  S
O4759      H4804   0.990       .  S
Zr4760     O4761   2.442       .  S
Zr4760     O4762   2.434       .  S
Zr4760     O4763   2.275       .  S
Zr4760     O4764   2.378       .  S
Zr4760     O4788   2.376       .  S
Zr4760     O4790   2.385       .  S
O4761      H4802   0.990       .  S
O4761      H4805   0.990       .  S
O4762      H4795   0.990       .  S
O4764     Zr4784   2.397       .  S
O4764      H4791   0.963       .  S
O4765     Zr4777   2.510       .  S
O4765      C4767   1.302       .  A
O4766      C4767   1.278       .  A
C4767      C5041   1.485       .  S
O4768     Zr4780   2.390       .  S
O4768      C4770   1.268       .  A
O4769     Zr4783   2.496       .  S
O4769      C4770   1.293       .  A
C4770      C5209   1.499       .  S
O4771     Zr4780   2.403       .  S
O4771      C4773   1.277       .  A
O4772      C4773   1.295       .  A
C4773      C5092   1.478       .  S
O4774     Zr4777   2.549       .  S
O4774      C4776   1.310       .  A
O4775     Zr4783   2.323       .  S
O4775      C4776   1.270       .  A
C4776      C5053   1.480       .  S
Zr4777     O4778   2.435       .  S
Zr4777     O4779   2.437       .  S
Zr4777     O4786   2.260       .  S
Zr4777     O4785   2.384       .  S
Zr4777     O4789   2.357   1_565  S
O4778      H4798   0.990       .  S
O4778      H4803   0.990       .  S
O4779      H4799   0.990       .  S
Zr4780     O4781   2.439       .  S
Zr4780     O4782   2.440       .  S
Zr4780     O4786   2.256       .  S
Zr4780     O4785   2.370       .  S
O4781      H4797   0.990       .  S
O4782      H4796   0.988       .  S
O4782      H4806   0.990       .  S
Zr4783     O4786   2.239       .  S
Zr4783     O4789   2.427   1_565  S
Zr4784     O4787   2.417       .  S
Zr4784     O4790   2.383       .  S
O4785      H4793   0.965       .  S
O4788      H4792   0.965       .  S
O4789      H4794   0.966       .  S
O4807     Zr4819   2.396       .  S
O4807      C4809   1.266       .  A
O4808      C4809   1.280       .  A
C4809      C5200   1.491       .  S
O4810     Zr4822   2.552       .  S
O4810      C4812   1.310       .  A
O4811      C4812   1.277       .  A
C4812      C5020   1.511       .  S
O4813     Zr4822   2.544       .  S
O4813      C4815   1.308       .  A
O4814      C4815   1.274       .  A
C4815      C5032   1.496       .  S
O4816     Zr4819   2.376       .  S
O4816      C4818   1.274       .  A
O4817      C4818   1.306       .  A
C4818      C5125   1.496       .  S
Zr4819     O4820   2.434       .  S
Zr4819     O4821   2.434       .  S
Zr4819     O4825   2.277       .  S
Zr4819     O4826   2.379       .  S
O4820      H4863   0.989       .  S
O4821      H4862   0.990       .  S
O4821      H4866   0.989       .  S
Zr4822     O4823   2.435       .  S
Zr4822     O4824   2.435       .  S
Zr4822     O4825   2.296       .  S
Zr4822     O4826   2.379       .  S
O4823      H4864   0.990       .  S
O4823      H4867   0.990       .  S
O4824      H4857   0.990       .  S
O4826      H4853   0.964       .  S
O4827     Zr4839   2.388       .  S
O4827      C4829   1.272       .  A
O4828     Zr4846   2.493       .  S
O4828      C4829   1.298       .  A
C4829      C5116   1.479       .  S
O4830     Zr4842   2.591       .  S
O4830      C4832   1.318       .  A
O4831     Zr4845   2.315       .  S
O4831      C4832   1.262       .  A
C4832      C5005   1.512       .  S
O4833     Zr4842   2.547       .  S
O4833      C4835   1.310       .  A
O4834     Zr4846   2.366       .  S
O4834      C4835   1.277       .  A
C4835      C4993   1.492       .  S
O4836     Zr4839   2.387       .  S
O4836      C4838   1.272       .  A
O4837     Zr4845   2.477       .  S
O4837      C4838   1.291       .  A
C4838      C5188   1.476       .  S
Zr4839     O4840   2.447       .  S
Zr4839     O4841   2.437       .  S
Zr4839     O4848   2.267       .  S
Zr4839     O4847   2.384       .  S
Zr4839     O4851   2.381       .  S
Zr4839     O4849   2.384       .  S
O4840      H4860   0.991       .  S
O4840      H4865   0.990       .  S
O4841      H4861   0.990       .  S
Zr4842     O4843   2.435       .  S
Zr4842     O4844   2.436       .  S
Zr4842     O4848   2.270       .  S
Zr4842     O4847   2.381       .  S
Zr4842     O4852   2.378       .  S
Zr4842     O4850   2.353       .  S
O4843      H4859   0.990       .  S
O4844      H4858   0.990       .  S
O4844      H4868   0.990       .  S
Zr4845     O4848   2.231       .  S
Zr4845     O4850   2.402       .  S
Zr4845     O4851   2.357       .  S
Zr4846     O4847   2.395       .  S
Zr4846     O4849   2.376       .  S
Zr4846     O4852   2.420       .  S
O4847      H4855   0.962       .  S
O4850      H4854   0.966       .  S
O4851      H4856   0.966   1_565  S
O4869      C4871   1.312       .  A
O4870     Zr4907   2.317       .  S
O4870      C4871   1.270       .  A
C4871      C5080   1.498       .  S
O4872     Zr4884   2.423       .  S
O4872      C4874   1.271       .  A
O4873     Zr4908   2.476       .  S
O4873      C4874   1.283       .  A
C4874      C5176   1.495       .  S
O4875      C4877   1.284       .  A
O4876     Zr4907   2.493       .  S
O4876      C4877   1.297       .  A
C4877      C5269   1.486       .  S
O4878     Zr4881   2.541       .  S
O4878      C4880   1.309       .  A
O4879     Zr4908   2.355       .  S
O4879      C4880   1.270       .  A
C4880      C5065   1.506       .  S
Zr4881     O4882   2.433       .  S
Zr4881     O4883   2.439       .  S
Zr4881     O4888   2.383       .  S
Zr4881     O4911   2.377       .  S
O4883      H4928   0.990       .  S
Zr4884     O4885   2.450       .  S
Zr4884     O4886   2.441       .  S
Zr4884     O4888   2.415       .  S
Zr4884     O4914   2.392       .  S
O4885      H4926   0.988       .  S
O4885      H4929   0.990       .  S
O4886      H4919   0.990       .  S
O4887     Zr4907   2.341       .  S
O4888     Zr4908   2.374       .  S
O4888      H4915   0.955       .  S
O4889     Zr4901   2.556       .  S
O4889      C4891   1.311       .  A
O4890     Zr4908   2.344       .  S
O4890      C4891   1.271       .  A
C4891      C5017   1.494       .  S
O4892      C4894   1.272       .  A
O4893     Zr4907   2.460       .  S
O4893      C4894   1.286       .  A
C4894      C5260   1.481       .  S
O4895     Zr4904   2.406       .  S
O4895      C4897   1.280       .  A
O4896     Zr4908   2.476       .  S
O4896      C4897   1.295       .  A
C4897      C5164   1.478       .  S
O4898      C4900   1.312       .  A
O4899     Zr4907   2.362       .  S
O4899      C4900   1.276       .  A
C4900      C5029   1.501       .  S
Zr4901     O4902   2.433       .  S
Zr4901     O4903   2.429       .  S
Zr4901     O4909   2.348       .  S
Zr4901     O4911   2.364       .  S
O4902      H4922   0.990       .  S
O4902      H4927   0.990       .  S
O4903      H4923   0.990       .  S
Zr4904     O4905   2.439       .  S
Zr4904     O4906   2.436       .  S
Zr4904     O4909   2.387       .  S
Zr4904     O4914   2.372       .  S
O4905      H4921   0.990       .  S
O4906      H4920   0.990       .  S
O4906      H4930   0.990       .  S
Zr4907     O4910   2.365       .  S
Zr4907     O4912   2.374       .  S
Zr4907     O4913   2.412       .  S
Zr4908     O4909   2.367       .  S
Zr4908     O4911   2.411       .  S
Zr4908     O4914   2.381       .  S
O4909      H4917   0.959       .  S
O4912      H4916   0.966       .  S
O4913      H4918   0.966       .  S
O4931      C4933   1.280       .  A
O4932     Zr4969   2.483       .  S
O4932      C4933   1.295       .  A
C4933      C5248   1.480       .  S
O4934     Zr4946   2.515       .  S
O4934      C4936   1.302       .  A
O4935     Zr4970   2.369       .  S
O4935      C4936   1.278       .  A
C4936      C5044   1.491       .  S
O4937      C4939   1.308       .  A
O4938     Zr4969   2.317       .  S
O4938      C4939   1.268       .  A
C4939      C5056   1.484       .  S
O4940     Zr4943   2.410       .  S
O4940      C4942   1.270       .  A
O4941     Zr4970   2.465       .  S
O4941      C4942   1.279       .  A
C4942      C5152   1.497       .  S
Zr4943     O4944   2.431       .  S
Zr4943     O4945   2.434       .  S
Zr4943     O4950   2.379       .  S
Zr4943     O4973   2.380       .  S
O4945      H4986   0.990   1_655  S
O4945      H4990   0.990       .  S
Zr4946     O4947   2.436       .  S
Zr4946     O4948   2.434       .  S
Zr4946     O4950   2.388       .  S
Zr4946     O4976   2.389       .  S
O4947      H4988   0.990       .  S
O4947      H4991   0.990       .  S
O4949     Zr4969   2.336       .  S
O4950     Zr4970   2.420       .  S
O4950      H4977   0.965       .  S
O4951     Zr4963   2.385       .  S
O4951      C4953   1.277       .  A
O4952     Zr4970   2.507       .  S
O4952      C4953   1.300       .  A
C4953      C5140   1.493       .  S
O4954      C4956   1.316       .  A
O4955     Zr4969   2.333       .  S
O4955      C4956   1.264       .  A
C4956      C5008   1.515       .  S
O4957     Zr4966   2.540       .  S
O4957      C4959   1.307       .  A
O4958     Zr4970   2.369       .  S
O4958      C4959   1.275       .  A
C4959      C4996   1.491       .  S
O4960      C4962   1.279       .  A
O4961     Zr4969   2.453       .  S
O4961      C4962   1.289       .  A
C4962      C5236   1.468       .  S
Zr4963     O4964   2.442       .  S
Zr4963     O4965   2.437       .  S
Zr4963     O4971   2.407       .  S
Zr4963     O4973   2.364       .  S
O4964      H4984   0.991       .  S
O4964      H4989   0.990       .  S
O4965      H4985   0.990       .  S
Zr4966     O4967   2.435       .  S
Zr4966     O4968   2.433       .  S
Zr4966     O4971   2.381       .  S
Zr4966     O4976   2.379       .  S
O4967      H4983   0.990       .  S
O4968      H4982   0.990       .  S
O4968      H4992   0.990       .  S
Zr4969     O4972   2.354       .  S
Zr4969     O4974   2.407       .  S
Zr4969     O4975   2.368       .  S
Zr4970     O4971   2.383       .  S
Zr4970     O4973   2.391       .  S
Zr4970     O4976   2.416       .  S
O4971      H4979   0.964       .  S
O4974      H4978   0.965       .  S
O4975      H4980   0.966       .  S
C4993      C4994   1.402       .  A
C4993      C4998   1.418       .  A
C4994      C4995   1.409       .  A
C4994      H5003   1.084       .  S
C4995      C4996   1.419       .  A
C4995      S4999   1.797       .  S
C4996      C4997   1.401       .  A
C4997      C4998   1.408       .  A
C4997      H5004   1.082       .  S
C4998      S5000   1.793       .  S
S4999      H5002   1.407       .  S
S5000      H5001   1.405       .  S
C5005      C5006   1.395       .  A
C5005      C5010   1.441       .  A
C5006      C5007   1.414       .  A
C5006      H5015   1.083       .  S
C5007      C5008   1.444       .  A
C5007      S5011   1.813       .  S
C5008      C5009   1.390       .  A
C5009      C5010   1.403       .  A
C5009      H5016   1.081       .  S
C5010      S5012   1.813       .  S
S5011      H5014   1.407       .  S
S5012      H5013   1.406       .  S
C5017      C5018   1.417       .  A
C5017      C5022   1.407       .  A
C5018      C5019   1.413       .  A
C5018      H5027   1.084       .  S
C5019      C5020   1.414       .  A
C5019      S5023   1.799       .  S
C5020      C5021   1.418       .  A
C5021      C5022   1.405       .  A
C5021      H5028   1.083       .  S
C5022      S5024   1.798       .  S
S5023      H5026   1.407       .  S
S5024      H5025   1.405       .  S
C5029      C5030   1.419       .  A
C5029      C5034   1.409       .  A
C5030      C5031   1.407       .  A
C5030      H5039   1.083       .  S
C5031      C5032   1.408       .  A
C5032      C5033   1.419       .  A
C5033      C5034   1.409       .  A
C5033      H5040   1.084       .  S
C5034      S5036   1.802       .  S
S5035      H5038   1.405       .  S
S5036      H5037   1.405       .  S
C5041      C5042   1.412       .  A
C5041      C5046   1.404       .  A
C5042      C5043   1.405       .  A
C5042      H5051   1.081       .  S
C5043      C5044   1.411       .  A
C5043      S5047   1.804       .  S
C5044      C5045   1.415       .  A
C5045      C5046   1.403       .  A
C5045      H5052   1.083       .  S
C5046      S5048   1.807       .  S
S5047      H5050   1.404       .  S
S5048      H5049   1.407       .  S
C5053      C5054   1.415       .  A
C5053      C5058   1.402       .  A
C5054      C5055   1.411       .  A
C5054      H5063   1.084       .  S
C5055      C5056   1.414       .  A
C5055      S5059   1.801       .  S
C5056      C5057   1.414       .  A
C5057      C5058   1.400       .  A
C5057      H5064   1.085       .  S
C5058      S5060   1.795       .  S
S5059      H5062   1.405       .  S
S5060      H5061   1.405       .  S
C5065      C5066   1.393       .  A
C5065      C5070   1.436       .  A
C5066      C5067   1.404       .  A
C5066      H5075   1.082       .  S
C5067      C5068   1.440       .  A
C5067      S5071   1.816       .  S
C5068      C5069   1.397       .  A
C5069      C5070   1.408       .  A
C5069      H5076   1.083       .  S
C5070      S5072   1.811       .  S
S5071      H5074   1.407       .  S
S5072      H5073   1.408       .  S
C5077      C5078   1.427       .  A
C5077      C5082   1.407       .  A
C5078      C5079   1.404       .  A
C5078      H5087   1.083       .  S
C5079      C5080   1.400       .  A
C5079      S5083   1.799       .  S
C5080      C5081   1.423       .  A
C5081      C5082   1.408       .  A
C5081      H5088   1.084       .  S
C5082      S5084   1.798       .  S
S5083      H5086   1.407       .  S
S5084      H5085   1.407       .  S
C5089      C5090   1.415       .  A
C5089      C5094   1.412       .  A
C5090      C5091   1.402       .  A
C5090      H5099   1.084       .  S
C5091      C5092   1.402       .  A
C5091      S5095   1.796       .  S
C5092      C5093   1.410       .  A
C5093      C5094   1.408       .  A
C5093      H5100   1.084       .  S
C5094      S5096   1.800       .  S
S5095      H5098   1.406       .  S
S5096      H5097   1.407       .  S
C5101      C5102   1.418       .  A
C5101      C5106   1.416       .  A
C5102      C5103   1.407       .  A
C5102      H5111   1.079       .  S
C5103      C5104   1.406       .  A
C5103      S5107   1.808       .  S
C5104      C5105   1.411       .  A
C5105      C5106   1.407       .  A
C5105      H5112   1.082       .  S
C5106      S5108   1.794       .  S
S5107      H5110   1.407       .  S
S5108      H5109   1.407       .  S
C5113      C5114   1.422       .  A
C5113      C5118   1.407       .  A
C5114      C5115   1.400       .  A
C5114      H5123   1.084       .  S
C5115      C5116   1.401       .  A
C5115      S5119   1.802       .  S
C5116      C5117   1.416       .  A
C5117      C5118   1.407       .  A
C5117      H5124   1.084       .  S
C5118      S5120   1.799       .  S
S5119      H5122   1.405       .  S
S5120      H5121   1.407       .  S
C5125      C5126   1.403       .  A
C5125      C5130   1.423       .  A
C5126      C5127   1.408       .  A
C5126      H5135   1.082       .  S
C5127      C5128   1.416       .  A
C5127      S5131   1.799   1_556  S
C5128      C5129   1.403       .  A
C5129      C5130   1.415       .  A
C5129      H5136   1.076       .  S
C5130      S5132   1.799       .  S
S5131      H5134   1.404       .  S
S5132      H5133   1.399       .  S
C5137      C5138   1.407       .  A
C5137      C5142   1.418       .  A
C5138      C5139   1.396       .  A
C5138      H5147   1.082       .  S
C5139      C5140   1.413       .  A
C5139      S5143   1.807       .  S
C5140      C5141   1.410       .  A
C5141      C5142   1.420       .  A
C5141      H5148   1.080       .  S
C5142      S5144   1.796       .  S
S5143      H5146   1.407       .  S
S5144      H5145   1.407       .  S
C5149      C5150   1.407       .  A
C5149      C5154   1.423       .  A
C5150      C5151   1.396       .  A
C5150      H5159   1.076       .  S
C5151      C5152   1.407       .  A
C5151      S5155   1.805       .  S
C5152      C5153   1.413       .  A
C5153      C5154   1.422       .  A
C5153      H5160   1.084       .  S
C5154      S5156   1.799       .  S
S5155      H5158   1.408       .  S
S5156      H5157   1.406       .  S
C5161      C5162   1.395       .  A
C5161      C5166   1.430       .  A
C5162      C5163   1.403       .  A
C5162      H5171   1.083       .  S
C5163      C5164   1.425       .  A
C5163      S5167   1.809       .  S
C5164      C5165   1.387       .  A
C5165      C5166   1.396       .  A
C5165      H5172   1.084       .  S
C5166      S5168   1.802       .  S
S5167      H5170   1.407       .  S
S5168      H5169   1.391       .  S
C5173      C5174   1.414       .  A
C5173      C5178   1.397       .  A
C5174      C5175   1.419       .  A
C5174      H5183   1.082       .  S
C5175      C5176   1.412       .  A
C5175      S5179   1.802       .  S
C5176      C5177   1.404       .  A
C5177      C5178   1.386       .  A
C5177      H5184   1.076       .  S
C5178      S5180   1.799       .  S
S5179      H5182   1.407       .  S
S5180      H5181   1.404       .  S
C5185      C5186   1.415       .  A
C5185      C5190   1.415       .  A
C5186      C5187   1.394       .  A
C5186      H5195   1.078       .  S
C5187      C5188   1.403       .  A
C5187      S5191   1.803       .  S
C5188      C5189   1.411       .  A
C5189      C5190   1.413       .  A
C5189      H5196   1.081       .  S
C5190      S5192   1.796       .  S
S5191      H5194   1.406       .  S
S5192      H5193   1.406       .  S
C5197      C5198   1.407       .  A
C5197      C5202   1.405       .  A
C5198      C5199   1.408       .  A
C5198      H5207   1.082       .  S
C5199      C5200   1.416       .  A
C5199      S5203   1.800       .  S
C5200      C5201   1.409       .  A
C5201      C5202   1.387       .  A
C5201      H5208   1.081       .  S
C5202      S5204   1.806       .  S
S5203      H5206   1.407       .  S
S5204      H5205   1.405       .  S
C5209      C5210   1.423       .  A
C5209      C5214   1.403       .  A
C5210      C5211   1.404       .  A
C5210      H5219   1.083       .  S
C5211      C5212   1.401       .  A
C5211      S5215   1.798       .  S
C5212      C5213   1.424       .  A
C5213      C5214   1.398       .  A
C5213      H5220   1.079       .  S
C5214      S5216   1.801       .  S
S5215      H5218   1.406       .  S
S5216      H5217   1.408       .  S
C5221      C5222   1.398       .  A
C5221      C5226   1.435       .  A
C5222      C5223   1.405       .  A
C5222      H5231   1.082       .  S
C5223      C5224   1.423       .  A
C5223      S5227   1.808       .  S
C5224      C5225   1.393       .  A
C5225      C5226   1.409       .  A
C5225      H5232   1.083       .  S
C5226      S5228   1.806       .  S
S5227      H5230   1.406       .  S
S5228      H5229   1.407       .  S
C5233      C5234   1.411       .  A
C5233      C5238   1.409       .  A
C5234      C5235   1.397       .  A
C5234      H5243   1.077       .  S
C5235      C5236   1.400       .  A
C5235      S5239   1.807       .  S
C5236      C5237   1.409       .  A
C5237      C5238   1.405       .  A
C5237      H5244   1.075       .  S
C5238      S5240   1.802       .  S
S5239      H5242   1.406       .  S
S5240      H5241   1.400       .  S
C5245      C5246   1.414       .  A
C5245      C5250   1.402       .  A
C5246      C5247   1.402       .  A
C5246      H5255   1.074       .  S
C5247      C5248   1.399       .  A
C5247      S5251   1.806       .  S
C5248      C5249   1.414       .  A
C5249      C5250   1.403       .  A
C5249      H5256   1.084       .  S
C5250      S5252   1.800       .  S
S5251      H5254   1.407       .  S
S5252      H5253   1.407       .  S
C5257      C5258   1.413       .  A
C5257      C5262   1.407       .  A
C5258      C5259   1.396       .  A
C5258      H5267   1.083       .  S
C5259      C5260   1.403       .  A
C5259      S5263   1.798       .  S
C5260      C5261   1.415       .  A
C5261      C5262   1.404       .  A
C5261      H5268   1.083       .  S
C5262      S5264   1.807       .  S
S5263      H5266   1.408       .  S
S5264      H5265   1.407       .  S
C5269      C5270   1.415       .  A
C5269      C5274   1.403       .  A
C5270      C5271   1.413       .  A
C5270      H5279   1.083       .  S
C5271      C5272   1.413       .  A
C5271      S5275   1.804       .  S
C5272      C5273   1.412       .  A
C5273      C5274   1.399       .  A
C5273      H5280   1.084       .  S
C5274      S5276   1.801       .  S
S5275      H5278   1.404       .  S
S5276      H5277   1.405       .  S
