geometry optimzed in LAMMPS
_audit_creation_date              2020-11-30 
_audit_creation_method            'lammps2cif' 
_symmetry_space_group_name_H-M    'P1' 
_symmetry_Int_Tables_number       1 
_symmetry_cell_setting            triclinic 
loop_ 
_symmetry_equiv_pos_as_xyz 
  x,y,z 
_cell_length_a                    45.55750008692786 
_cell_length_b                    52.44129272294205 
_cell_length_c                    43.33365483661365 
_cell_angle_alpha                 79.64713598266971 
_cell_angle_beta                  93.5683379057095 
_cell_angle_gamma                 90.57052699174852 
loop_ 
_atom_site_label 
_atom_site_type_symbol 
_atom_site_fract_x 
_atom_site_fract_y 
_atom_site_fract_z 
_atom_site_charge 
O1          O  0.33624251  0.15622125  0.33351580    -0.74130
O2          O  0.33420840  0.20031083  0.32900700    -0.53040
C3          C  0.32896362  0.17745477  0.34340439     0.79600
O4          O  0.47452097  0.15659899  0.26072336    -0.58730
O5          O  0.45455525  0.14454436  0.21614315    -0.51760
C6          C  0.47570356  0.14490393  0.23725277     0.71610
O7          O  0.43628934  0.18819503  0.33534974    -0.73290
O8          O  0.38787722  0.19424897  0.34056457    -0.53850
C9          C  0.41350129  0.18464743  0.35114408     0.77610
O10         O  0.37415305  0.10528129  0.26477256    -0.59230
O11         O  0.39953484  0.11615565  0.22012139    -0.51550
C12         C  0.38779894  0.09981931  0.24149140     0.74210
Zr13       Zr  0.36076578  0.14336256  0.28638036     2.54710
O14         O  0.37759265  0.11152303  0.33197510    -0.79000
O15         O  0.31338838  0.12221400  0.28072951    -0.92420
Zr16       Zr  0.43921643  0.18187844  0.28256593     2.64680
O17         O  0.46906607  0.15281533  0.32239212    -0.97370
O18         O  0.47797523  0.21435981  0.27968091    -0.79430
O19         O  0.39089901  0.17586897  0.29952103    -0.82790
O20         O  0.40937437  0.14917917  0.26576424    -2.17500
O21         O  0.32882573  0.16066008  0.17800464    -0.66180
O22         O  0.37400959  0.14600778  0.16945997    -0.50750
C23         C  0.34584244  0.14687492  0.16484035     0.72590
O24         O  0.38773877  0.27120793  0.23302372    -0.59090
O25         O  0.37378002  0.26104899  0.28321594    -0.51070
C26         C  0.37956432  0.27740741  0.25835111     0.74390
O27         O  0.42706878  0.23116401  0.16954932    -0.70480
O28         O  0.42568813  0.18910464  0.16237783    -0.49160
C29         C  0.43154870  0.21361265  0.15375840     0.75780
O30         O  0.29674567  0.22228599  0.22863596    -0.65810
O31         O  0.31524058  0.23414224  0.27422978    -0.53010
C32         C  0.29528126  0.23454618  0.25157203     0.74160
Zr33       Zr  0.33049908  0.19273996  0.21282364     2.77540
O34         O  0.31422871  0.21966341  0.16298608    -0.96560
O35         O  0.28247588  0.17213755  0.21806604    -0.77380
Zr36       Zr  0.40471605  0.23346758  0.21597092     2.70070
O37         O  0.39063250  0.26821165  0.17248575    -0.78630
O38         O  0.45161860  0.25450169  0.22485734    -0.97710
Zr39       Zr  0.36434473  0.21468404  0.28776297     2.21500
Zr40       Zr  0.40472066  0.16237397  0.20953416     2.11130
O41         O  0.37746524  0.20145246  0.19334620    -2.46400
O42         O  0.35684203  0.22626119  0.23260077    -0.78420
O43         O  0.35718841  0.15442925  0.23048645    -0.70620
O44         O  0.41313509  0.22210633  0.27095768    -2.31580
O45         O  0.33468776  0.18238085  0.26842249    -2.27780
O46         O  0.43354177  0.19514916  0.22787606    -0.72380
H47         H  0.42028060  0.13315049  0.27147247     0.79620
H48         H  0.42320140  0.23549556  0.28015047     0.80710
H49         H  0.37518158  0.20616456  0.17073192     0.82930
H50         H  0.31538327  0.18133293  0.27660239     0.80540
H51         H  0.48171516  0.21713243  0.30159338     0.43570
H52         H  0.46633867  0.24398973  0.21681539     0.42540
H53         H  0.37022459  0.26393480  0.16596036     0.42220
H54         H  0.32333697  0.21180466  0.14675605     0.40160
H55         H  0.28683117  0.15341048  0.22450852     0.43290
H56         H  0.29924806  0.13308953  0.28904899     0.38070
H57         H  0.37918311  0.12119822  0.34962976     0.44190
H58         H  0.46663960  0.13530271  0.31703678     0.40600
H59         H  0.29301131  0.21574413  0.16035898     0.45520
H60         H  0.31487414  0.10603053  0.29653816     0.44250
H61         H  0.48979108  0.15758918  0.31863289     0.44380
H62         H  0.45064315  0.27102227  0.20960769     0.44740
O63         O  0.39653450  0.02195267  0.23112124    -0.74130
O64         O  0.38319918  0.50773509  0.28188734    -0.53040
C65         C  0.38848136  0.02625307  0.25772016     0.79600
O66         O  0.32576776  0.41727538  0.16238166    -0.58730
O67         O  0.37141281  0.40354592  0.15414281    -0.51760
C68         C  0.34330830  0.40449059  0.14819823     0.71610
O69         O  0.30333643  0.47786797  0.22132168    -0.73290
O70         O  0.32319066  0.48725571  0.26780686    -0.53850
C71         C  0.30307886  0.48904388  0.24538551     0.77610
O72         O  0.44275549  0.48066080  0.16771644    -0.58430
O73         O  0.43536538  0.43981200  0.15705490    -0.51550
C74         C  0.44721790  0.46302136  0.15178118     0.74210
Zr75       Zr  0.41077884  0.48454686  0.20800377     2.54710
O76         O  0.39294183  0.01816849  0.16207153    -0.79000
O77         O  0.45707291  0.50682755  0.21633532    -0.92420
Zr78       Zr  0.33348694  0.44869297  0.19968056     2.64680
O79         O  0.32585420  0.48098716  0.15193902    -0.97370
O80         O  0.28181651  0.43674824  0.19566417    -0.79430
O81         O  0.36262632  0.47852598  0.22421995    -0.82790
O82         O  0.38161530  0.45507450  0.18195745    -2.17500
O83         O  0.46780496  0.39937508  0.25008307    -0.66180
O84         O  0.44917708  0.39001048  0.20365759    -0.50750
C85         C  0.46873851  0.38799361  0.22649057     0.72590
O86         O  0.33391957  0.40887939  0.32181737    -0.59090
O87         O  0.33775465  0.45244322  0.32002038    -0.51070
C88         C  0.32946836  0.43008766  0.33312708     0.74390
O89         O  0.36716146  0.35762055  0.25366174    -0.70480
O90         O  0.39439609  0.36641150  0.21014761    -0.49160
C91         C  0.38125526  0.35089198  0.23169528     0.75780
O92         O  0.43733038  0.42791086  0.32734274    -0.65810
O93         O  0.39113733  0.44157083  0.33264983    -0.53010
C94         C  0.41528927  0.42914581  0.34359660     0.74160
Zr95       Zr  0.43900928  0.42824024  0.27290898     2.77540
O96         O  0.47057818  0.40005348  0.31199633    -0.96560
O97         O  0.48007864  0.45846577  0.26993473    -0.77380
Zr98       Zr  0.35701305  0.39615984  0.27366194     2.70070
O99         O  0.37015059  0.36213936  0.31831455    -0.78630
O100        O  0.30743762  0.37957801  0.26629807    -0.97710
Zr101      Zr  0.36925108  0.46405315  0.27954088     2.21500
Zr102      Zr  0.40352465  0.41339250  0.19757150     2.11130
O103        O  0.40597654  0.39903419  0.25372092    -2.46400
O104        O  0.39120297  0.42366346  0.29131372    -0.78420
O105        O  0.43453039  0.44348213  0.21880377    -0.70620
O106        O  0.33571590  0.43672380  0.25583043    -2.31580
O107        O  0.41793991  0.47019504  0.26302667    -2.27780
O108        O  0.35532115  0.40811347  0.21737193    -0.72380
H109        H  0.38105506  0.46040193  0.15938595     0.79620
H110        H  0.31635395  0.43679523  0.26371830     0.80710
H111        H  0.41524579  0.38223873  0.25946687     0.82930
H112        H  0.42920230  0.48204255  0.27374622     0.80540
H113        H  0.27847900  0.42554601  0.21610367     0.43570
H114        H  0.30514982  0.37856694  0.24366937     0.42540
H115        H  0.39187389  0.36297946  0.32080315     0.42220
H116        H  0.46640759  0.38212192  0.30874710     0.40160
H117        H  0.49442870  0.45110038  0.25767849     0.43290
H118        H  0.45565346  0.51317564  0.23637013     0.38070
H119        H  0.37168506  0.02013267  0.16464441     0.44190
H120        H  0.32667772  0.47107637  0.13459398     0.40600
H121        H  0.49094035  0.40365167  0.30570589     0.45520
H122        H  0.45303557  0.02541997  0.19927670     0.44250
H123        H  0.30493478  0.48604009  0.15157144     0.44380
H124        H  0.30845659  0.36128058  0.27716449     0.44740
O125        O  0.14733179  0.14359825  0.23508158    -0.74130
O126        O  0.13344545  0.13250130  0.28527101    -0.53040
C127        C  0.13911289  0.14909957  0.26091828     0.79600
O128        O  0.08211840  0.04295017  0.16895527    -0.58730
O129        O  0.12506363  0.02327871  0.16243070    -0.51760
C130        C  0.09756492  0.02809190  0.15538825     0.71610
O131        O  0.05223306  0.09984140  0.22841798    -0.73290
O132        O  0.07235004  0.11005466  0.27433055    -0.53850
C133        C  0.05167350  0.11137054  0.25220068     0.77610
O134        O  0.19802618  0.09998605  0.17921093    -0.58430
O135        O  0.18876663  0.06001392  0.16683470    -0.51550
C136        C  0.20223308  0.08247395  0.16313773     0.74210
Zr137      Zr  0.16223355  0.10640841  0.21417718     2.54710
O138        O  0.14656505  0.13626451  0.16638981    -0.79000
O139        O  0.20686647  0.13155786  0.22048612    -0.92420
Zr140      Zr  0.08547519  0.07154762  0.20852723     2.64680
O141        O  0.07666578  0.10515586  0.16223837    -0.97370
O142        O  0.03522294  0.05596405  0.20356560    -0.79430
O143        O  0.11426750  0.10221266  0.23113109    -0.82790
O144        O  0.13320306  0.07642754  0.18950021    -2.17500
O145        O  0.22504348  0.02980365  0.25372430    -0.66180
O146        O  0.20284040  0.01481655  0.21197415    -0.50750
C147        C  0.22499855  0.01737505  0.23079124     0.72590
O148        O  0.08617906  0.03252638  0.33021360    -0.59090
O149        O  0.08962755  0.07627410  0.32739620    -0.51070
C150        C  0.08145608  0.05399982  0.34090204     0.74390
O151        O  0.12080183  0.47932338  0.26462383    -0.70480
O152        O  0.14647352  0.98804088  0.21927598    -0.49160
C153        C  0.13410810  0.47269853  0.24182292     0.75780
O154        O  0.19311710  0.07078620  0.32639767    -0.65810
O155        O  0.14616208  0.07049482  0.33869310    -0.53010
C156        C  0.17369290  0.06537026  0.34616322     0.74160
Zr157      Zr  0.19077844  0.05073556  0.28138727     2.77540
O158        O  0.20873682  0.01306908  0.31894287    -0.96560
O159        O  0.23852638  0.07126185  0.28685167    -0.77380
Zr160      Zr  0.10994705  0.01858957  0.28308857     2.70070
O161        O  0.12427418  0.48615533  0.33018611    -0.78630
O162        O  0.06078187  0.00094938  0.27658443    -0.97710
Zr163      Zr  0.12040908  0.08809200  0.28636102     2.21500
Zr164      Zr  0.15541269  0.03486717  0.20637761     2.11130
O165        O  0.15845443  0.02092853  0.26259341    -2.46400
O166        O  0.14316550  0.04709671  0.30164203    -0.78420
O167        O  0.18557280  0.06550461  0.22725136    -0.70620
O168        O  0.08803363  0.05915617  0.26441671    -2.31580
O169        O  0.16906870  0.09274748  0.26889977    -2.27780
O170        O  0.10739295  0.03080754  0.22676408    -0.72380
H171        H  0.13242816  0.08126942  0.16686476     0.79620
H172        H  0.06863910  0.05922217  0.27222045     0.80710
H173        H  0.16802900  0.00426132  0.26820432     0.82930
H174        H  0.18038044  0.10521930  0.27854680     0.80540
H175        H  0.03234131  0.04453616  0.22397078     0.43570
H176        H  0.05884826  0.99863966  0.25436019     0.42540
H177        H  0.14592802  0.48472535  0.33014210     0.42220
H178        H  0.20978590  0.99885992  0.30678868     0.40160
H179        H  0.23996727  0.08371043  0.26690640     0.43290
H180        H  0.20698165  0.13565608  0.24191959     0.38070
H181        H  0.12711283  0.14261199  0.17072462     0.44190
H182        H  0.08099007  0.09678214  0.14428310     0.40600
H183        H  0.22953028  0.01717843  0.32408566     0.45520
H184        H  0.20315292  0.14840378  0.20632986     0.44250
H185        H  0.05505398  0.10752808  0.16028973     0.44380
H186        H  0.06279579  0.48360122  0.28975487     0.44740
O187        O  0.16747201  0.35445012  0.16217457    -0.74130
O188        O  0.16911660  0.31182151  0.15725189    -0.53040
C189        C  0.17353307  0.33652288  0.14733860     0.79600
O190        O  0.18301126  0.30504917  0.33089039    -0.58730
O191        O  0.13576321  0.31527735  0.33761147    -0.51760
C192        C  0.16120845  0.30486958  0.34790784     0.71610
O193        O  0.21821613  0.27862468  0.25402926    -0.73290
O194        O  0.19783069  0.26573048  0.21016385    -0.53850
C195        C  0.21909538  0.26644628  0.23103422     0.77610
O196        O  0.13581259  0.39308233  0.23348005    -0.58430
O197        O  0.11979586  0.38067391  0.28266107    -0.51550
C198        C  0.12747807  0.39805109  0.25957715     0.74210
Zr199      Zr  0.14667374  0.35548527  0.21063255     2.54710
O200        O  0.19382392  0.37765821  0.21187364    -0.79000
O201        O  0.12260262  0.38905481  0.17133326    -0.92420
Zr202      Zr  0.18373017  0.30330082  0.27668476     2.64680
O203        O  0.22297177  0.33505392  0.27729977    -0.97370
O204        O  0.21378193  0.27078133  0.31162350    -0.79430
O205        O  0.17641535  0.31742129  0.22215353    -0.82790
O206        O  0.15756626  0.34331651  0.26545878    -2.17500
O207        O  0.04170455  0.34012926  0.22813851    -0.66180
O208        O  0.06121054  0.35309108  0.27275378    -0.50750
C209        C  0.04094772  0.35274810  0.25073549     0.72590
O210        O  0.11752379  0.22700852  0.26008653    -0.59090
O211        O  0.14231345  0.23762613  0.21492861    -0.51070
C212        C  0.13081134  0.22145773  0.23675820     0.74390
O213        O  0.08330403  0.27664428  0.33179030    -0.70480
O214        O  0.08109166  0.32067852  0.32705495    -0.49160
C215        C  0.07628614  0.29789932  0.34181455     0.75780
O216        O  0.07043794  0.28105655  0.17210991    -0.65810
O217        O  0.11712773  0.27021707  0.16337371    -0.53010
C218        C  0.08910578  0.26955518  0.15794196     0.74160
Zr219      Zr  0.07412650  0.31156493  0.20984542     2.77540
O220        O  0.02710169  0.28906241  0.21515339    -0.96560
O221        O  0.05661149  0.33950735  0.16124922    -0.77380
Zr222      Zr  0.10669931  0.26400653  0.28376196     2.70070
O223        O  0.06057548  0.24003926  0.28640329    -0.78630
O224        O  0.13028895  0.23334541  0.32687476    -0.97710
Zr225      Zr  0.14829123  0.28407175  0.20438442     2.21500
Zr226      Zr  0.11019160  0.33454773  0.28492371     2.11130
O227        O  0.07995091  0.30224011  0.26579804    -2.46400
O228        O  0.10193138  0.27421614  0.22751067    -0.78420
O229        O  0.10012175  0.34564954  0.22977676    -0.70620
O230        O  0.15395218  0.27065387  0.26039585    -2.31580
O231        O  0.12005664  0.32242279  0.18886001    -2.27780
O232        O  0.13698081  0.29620705  0.29710264    -0.72380
H233        H  0.16799040  0.35658305  0.27453305     0.79620
H234        H  0.16504677  0.25469644  0.26555616     0.80710
H235        H  0.06099554  0.30088070  0.27477794     0.82930
H236        H  0.11716597  0.32697562  0.16626506     0.80540
H237        H  0.20258424  0.25442575  0.31234193     0.43570
H238        H  0.12567449  0.23977643  0.34615464     0.42540
H239        H  0.04881391  0.24787296  0.26710211     0.42220
H240        H  0.02106112  0.29053194  0.23632141     0.40160
H241        H  0.06156090  0.35726330  0.16463933     0.43290
H242        H  0.11488734  0.37995989  0.15438531     0.38070
H243        H  0.20869561  0.36377687  0.21337951     0.44190
H244        H  0.22171471  0.34110238  0.29755207     0.40600
H245        H  0.01309336  0.30028291  0.20046718     0.45520
H246        H  0.13882962  0.39996656  0.16209402     0.44250
H247        H  0.24127118  0.32464555  0.28002675     0.44380
H248        H  0.11864130  0.21723968  0.32753123     0.44740
O249        O  0.22131049  0.12176183  0.08053919    -0.74130
O250        O  0.26281863  0.14350132  0.09208639    -0.53040
C251        C  0.24091576  0.12779164  0.10000332     0.79600
O252        O  0.28301690  0.05960380  0.00031415    -0.58730
O253        O  0.25172994  0.06907690  0.95621147    -0.51760
C254        C  0.26734954  0.05324693  0.97721129     0.71610
O255        O  0.32091712  0.10357496  0.07627250    -0.73290
O256        O  0.31930228  0.14657668  0.07948120    -0.53850
C257        C  0.32726769  0.12323803  0.09003970     0.77610
O258        O  0.17780071  0.10570711  0.99961837    -0.58430
O259        O  0.19253877  0.09742738  0.95323450    -0.51550
C260        C  0.17355684  0.09650875  0.97453184     0.74210
Zr261      Zr  0.21450653  0.12737449  0.02582712     2.54710
O262        O  0.18823739  0.09176050  0.05626594    -0.79000
O263        O  0.17454748  0.15678781  0.03028158    -0.92420
Zr264      Zr  0.29456205  0.09628089  0.02561999     2.64680
O265        O  0.28562418  0.05943492  0.06687567    -0.97370
O266        O  0.34371255  0.08189951  0.01747924    -0.79430
O267        O  0.26336038  0.12240355  0.04715004    -0.82790
O268        O  0.24423765  0.09934162  0.00421159    -2.17500
O269        O  0.19685879  0.17636955  0.93141622    -0.66180
O270        O  0.21511280  0.14651547  0.90597997    -0.50750
C271        C  0.20020354  0.16746905  0.90639096     0.72590
O272        O  0.33757050  0.19035121  0.97807781    -0.59090
O273        O  0.32910552  0.18936258  0.02984578    -0.51070
C274        C  0.34288677  0.19736415  0.00470454     0.74390
O275        O  0.31406820  0.13274236  0.91436271    -0.70480
O276        O  0.27311188  0.10891505  0.90590765    -0.49160
C277        C  0.29903346  0.11757034  0.89898631     0.75780
O278        O  0.24692408  0.22086515  0.99681109    -0.65810
O279        O  0.27053046  0.20755722  0.04481624    -0.53010
C280        C  0.25838660  0.22508842  0.02344805     0.74160
Zr281      Zr  0.23661873  0.18672005  0.96574246     2.77540
O282        O  0.25482709  0.21717237  0.92184929    -0.96560
O283        O  0.19567931  0.21685661  0.96163847    -0.77380
Zr284      Zr  0.31312001  0.15420527  0.96030084     2.70070
O285        O  0.33070110  0.18398414  0.91549993    -0.78630
O286        O  0.36261632  0.13638967  0.97144221    -0.97710
Zr287      Zr  0.28387324  0.16400239  0.04010695     2.21500
Zr288      Zr  0.24267114  0.11625343  0.94890133     2.11130
O289        O  0.26402615  0.15911380  0.93933282    -2.46400
O290        O  0.28541662  0.18167183  0.98553223    -0.78420
O291        O  0.21447689  0.14494228  0.97246597    -0.70620
O292        O  0.31491517  0.13808144  0.01524101    -2.31580
O293        O  0.23403438  0.16969799  0.02008809    -2.27780
O294        O  0.29271266  0.11242650  0.97051844    -0.72380
H295        H  0.23506390  0.08248942  0.00810559     0.79620
H296        H  0.33497524  0.13804800  0.02390357     0.80710
H297        H  0.26412301  0.16602556  0.91710602     0.82930
H298        H  0.22314930  0.18060161  0.03108365     0.80540
H299        H  0.35712869  0.09149030  0.03016838     0.43570
H300        H  0.36385323  0.12338057  0.95759842     0.42540
H301        H  0.31461291  0.19678661  0.90929243     0.42220
H302        H  0.24272479  0.21386064  0.90319810     0.40160
H303        H  0.18328235  0.20928790  0.97895270     0.43290
H304        H  0.17377229  0.15637690  0.05315684     0.38070
H305        H  0.20143794  0.07660198  0.05803808     0.44190
H306        H  0.26572403  0.05326399  0.06127472     0.40600
H307        H  0.24816377  0.23434847  0.92512399     0.45520
H308        H  0.15648675  0.14765240  0.02445395     0.44250
H309        H  0.29910676  0.04571855  0.06325369     0.44380
H310        H  0.37565071  0.15064735  0.96239838     0.44740
O311        O  0.31956005  0.37087078  0.06740613    -0.74130
O312        O  0.27161008  0.36450100  0.07624270    -0.53040
C313        C  0.29839548  0.37025469  0.08545395     0.79600
O314        O  0.24780992  0.47178915  0.98473397    -0.58730
O315        O  0.27208355  0.47201343  0.93976662    -0.51760
C316        C  0.25967466  0.48345519  0.95959696     0.71610
O317        O  0.21400979  0.40214438  0.06200240    -0.73290
O318        O  0.21568916  0.35827766  0.06469248    -0.53850
C319        C  0.20791339  0.37812913  0.07499888     0.77610
O320        O  0.35004681  0.42698236  0.98815825    -0.58430
O321        O  0.33018447  0.44660001  0.94024518    -0.51550
C322        C  0.35055966  0.44351693  0.96244290     0.74210
Zr323      Zr  0.31771338  0.39374269  0.01413738     2.54710
O324        O  0.33885529  0.42136492  0.04928174    -0.79000
O325        O  0.36277779  0.36886285  0.01570032    -0.92420
Zr326      Zr  0.23866636  0.42783400  0.01373427     2.64680
O327        O  0.25655895  0.45031049  0.05570047    -0.97370
O328        O  0.19100098  0.44922792  0.00968081    -0.79430
O329        O  0.27034145  0.39360857  0.03408204    -0.82790
O330        O  0.28647294  0.42873078  0.99199849    -2.17500
O331        O  0.30490362  0.36546074  0.90428168    -0.66180
O332        O  0.30396198  0.40960528  0.89211312    -0.50750
C333        C  0.30952455  0.38665331  0.88594025     0.72590
O334        O  0.17652304  0.35931208  0.96495840    -0.59090
O335        O  0.19592048  0.33826526  0.01264431    -0.51070
C336        C  0.17553459  0.34212312  0.98988602     0.74390
O337        O  0.20495066  0.43297485  0.90441154    -0.70480
O338        O  0.25106732  0.44758737  0.89334292    -0.49160
C339        C  0.22305033  0.44851800  0.88858949     0.75780
O340        O  0.26545540  0.31119340  0.97660339    -0.65810
O341        O  0.25537205  0.30989307  0.02754503    -0.53010
C342        C  0.25834768  0.29912251  0.00348986     0.74160
Zr343      Zr  0.28444012  0.35296240  0.95332703     2.77540
O344        O  0.27029067  0.32353870  0.91732033    -0.96560
O345        O  0.33214460  0.33169967  0.96488149    -0.77380
Zr346      Zr  0.20939673  0.39329346  0.94513883     2.70070
O347        O  0.19434046  0.37562296  0.89837920    -0.78630
O348        O  0.16108450  0.41139065  0.94939539    -0.97710
Zr349      Zr  0.24565214  0.35579165  0.02481692     2.21500
Zr350      Zr  0.28215587  0.42666671  0.93686909     2.11130
O351        O  0.25620874  0.38943521  0.92606454    -2.46400
O352        O  0.23705704  0.35606102  0.97026159    -0.78420
O353        O  0.31183355  0.39058316  0.96048919    -0.70620
O354        O  0.21436408  0.39128442  0.00051003    -2.31580
O355        O  0.29388752  0.35403942  0.00723531    -2.27780
O356        O  0.23503878  0.42891504  0.95823497    -0.72380
H357        H  0.29636920  0.44452106  0.99512217     0.79620
H358        H  0.19511109  0.38981118  0.00881012     0.80710
H359        H  0.25370852  0.38932016  0.90378767     0.82930
H360        H  0.30469080  0.33902248  0.01824794     0.80540
H361        H  0.17679863  0.43503659  0.01554077     0.43570
H362        H  0.16498919  0.42953390  0.95190715     0.42540
H363        H  0.20351972  0.35821502  0.90203918     0.42220
H364        H  0.26122755  0.33458443  0.89821444     0.40160
H365        H  0.34656825  0.34542147  0.95780002     0.43290
H366        H  0.35851827  0.35168822  0.02830259     0.38070
H367        H  0.32168097  0.42978008  0.05620187     0.44190
H368        H  0.27360857  0.46050100  0.04723712     0.40600
H369        H  0.28894978  0.31726137  0.91077276     0.45520
H370        H  0.37692511  0.37692480  0.02934353     0.44250
H371        H  0.24123450  0.46343917  0.05631559     0.44380
H372        H  0.15127837  0.41281408  0.92810235     0.44740
O373        O  0.46886461  0.99856938  0.06511342    -0.74130
O374        O  0.00717963  0.02252780  0.07648820    -0.53040
C375        C  0.48622430  0.00707011  0.08499698     0.79600
O376        O  0.03315624  0.43433311  0.99630432    -0.58730
O377        O  0.00565999  0.44224848  0.94934202    -0.51760
C378        C  0.01891559  0.42700069  0.97288487     0.71610
O379        O  0.07042303  0.48414489  0.06735176    -0.73290
O380        O  0.06444584  0.02487992  0.06814981    -0.53850
C381        C  0.07370438  0.00206324  0.07935619     0.77610
O382        O  0.42914507  0.48093964  0.97825267    -0.58430
O383        O  0.44948966  0.46893649  0.93636052    -0.51550
C384        C  0.42811546  0.46970327  0.95413610     0.74210
Zr385      Zr  0.46258813  0.00395809  0.01005287     2.54710
O386        O  0.43485767  0.46845581  0.03866145    -0.79000
O387        O  0.42246648  0.03365639  0.01291697    -0.92420
Zr388      Zr  0.04462332  0.47317391  0.01752521     2.64680
O389        O  0.03408691  0.43963289  0.06205133    -0.97370
O390        O  0.09369472  0.45694492  0.01255359    -0.79430
O391        O  0.01153638  0.99921163  0.03243813    -0.82790
O392        O  0.99540919  0.47490504  0.99261417    -2.17500
O393        O  0.44718003  0.04327925  0.92225183    -0.66180
O394        O  0.46715093  0.01677211  0.89422625    -0.50750
C395        C  0.45058702  0.03635057  0.89609079     0.72590
O396        O  0.08783936  0.06613185  0.96401607    -0.59090
O397        O  0.08116082  0.06213638  0.01626611    -0.51070
C398        C  0.09604309  0.06957121  0.99156129     0.74390
O399        O  0.06781488  0.00923061  0.90207976    -0.70480
O400        O  0.02803788  0.48263428  0.89493924    -0.49160
C401        C  0.05292515  0.99471222  0.88587181     0.75780
O402        O  0.49574796  0.09719512  0.97635895    -0.65810
O403        O  0.02001390  0.08614522  0.02656236    -0.53010
C404        C  0.00892162  0.10291606  0.00348098     0.74160
Zr405      Zr  0.48804332  0.06108428  0.94839954     2.77540
O406        O  0.00366982  0.09065555  0.90207800    -0.96560
O407        O  0.44976887  0.09408448  0.93794411    -0.77380
Zr408      Zr  0.06502006  0.02934699  0.94838937     2.70070
O409        O  0.08674368  0.05793349  0.90516038    -0.78630
O410        O  0.11357184  0.01026253  0.96288565    -0.97710
Zr411      Zr  0.03216699  0.04109725  0.02559601     2.21500
Zr412      Zr  0.99612935  0.99252456  0.93409274     2.11130
O413        O  0.01721605  0.03508048  0.92414111    -2.46400
O414        O  0.03605425  0.05775424  0.97116402    -0.78420
O415        O  0.46667304  0.01907767  0.95698945    -0.70620
O416        O  0.06416606  0.01386801  0.00343825    -2.31580
O417        O  0.48257234  0.04662567  0.00282271    -2.27780
O418        O  0.04599366  0.48622770  0.96174716    -0.72380
H419        H  0.48630924  0.45841517  0.99736176     0.79620
H420        H  0.08387614  0.01370823  0.01307514     0.80710
H421        H  0.01803147  0.04155146  0.90187440     0.82930
H422        H  0.47087195  0.05824220  0.01199096     0.80540
H423        H  0.10714771  0.46824486  0.02286468     0.43570
H424        H  0.11513195  0.49543254  0.95118757     0.42540
H425        H  0.07066418  0.06999681  0.89582174     0.42220
H426        H  0.99131605  0.08574059  0.88447139     0.40160
H427        H  0.43528614  0.08816362  0.95382131     0.43290
H428        H  0.42232872  0.03471945  0.03549903     0.38070
H429        H  0.44834925  0.45336891  0.04245653     0.44190
H430        H  0.01404387  0.43354616  0.05686615     0.40600
H431        H  0.50105269  0.10553141  0.90289955     0.45520
H432        H  0.40444046  0.02383702  0.00867646     0.44250
H433        H  0.04716166  0.42501861  0.06043553     0.44380
H434        H  0.12733422  0.02326138  0.95239400     0.44740
O435        O  0.06386692  0.24072813  0.07573744    -0.74130
O436        O  0.01674396  0.23371327  0.08735084    -0.53040
C437        C  0.04363961  0.23908150  0.09513568     0.79600
O438        O  0.49902611  0.34633669  0.98797819    -0.58730
O439        O  0.01900855  0.34440197  0.94216616    -0.51760
C440        C  0.51155132  0.35639448  0.96258815     0.71610
O441        O  0.46892237  0.28076837  0.07120564    -0.73290
O442        O  0.45432616  0.24094843  0.06360508    -0.53850
C443        C  0.45700590  0.25817718  0.08041467     0.77610
O444        O  0.09725145  0.29784788  0.99913786    -0.58430
O445        O  0.07793360  0.31676784  0.95064495    -0.51550
C446        C  0.09866858  0.31345368  0.97300038     0.74210
Zr447      Zr  0.06257030  0.26815544  0.02463621     2.54710
O448        O  0.07701378  0.29695689  0.06119021    -0.79000
O449        O  0.11050239  0.24712903  0.03050883    -0.92420
Zr450      Zr  0.48822769  0.30385186  0.01989946     2.64680
O451        O  0.50306694  0.33152832  0.05761039    -0.97370
O452        O  0.43934884  0.32324902  0.01390083    -0.79430
O453        O  0.01551187  0.26889872  0.04417293    -0.82790
O454        O  0.03284374  0.30310385  0.99821788    -2.17500
O455        O  0.05174979  0.23696907  0.91454743    -0.66180
O456        O  0.04893506  0.28103746  0.90000270    -0.50750
C457        C  0.05514759  0.25792834  0.89508917     0.72590
O458        O  0.42228859  0.23623184  0.98443996    -0.59090
O459        O  0.44407153  0.21182725  0.02896733    -0.51070
C460        C  0.42188154  0.21874109  0.00963475     0.74390
O461        O  0.45526904  0.30463899  0.91234729    -0.70480
O462        O  0.99141115  0.31994835  0.90246035    -0.49160
C463        C  0.47417413  0.31959237  0.89673811     0.75780
O464        O  0.02417977  0.18210003  0.99618520    -0.65810
O465        O  0.50207930  0.18424567  0.04236232    -0.53010
C466        C  0.01484670  0.17134187  0.02288305     0.74160
Zr467      Zr  0.03259636  0.22450055  0.96469270     2.77540
O468        O  0.01395539  0.19452495  0.93123028    -0.96560
O469        O  0.08188750  0.20609056  0.96995375    -0.77380
Zr470      Zr  0.45772139  0.26502305  0.95434484     2.70070
O471        O  0.44607281  0.24159070  0.91148394    -0.78630
O472        O  0.40753296  0.28165253  0.94764482    -0.97710
Zr473      Zr  0.49209304  0.23052890  0.03493248     2.21500
Zr474      Zr  0.02769122  0.29866140  0.94381253     2.11130
O475        O  0.00309456  0.25950859  0.93617843    -2.46400
O476        O  0.48424901  0.22749879  0.98102892    -0.78420
O477        O  0.05739276  0.26349662  0.97110097    -0.70620
O478        O  0.46312011  0.26713819  0.00829673    -2.31580
O479        O  0.04089725  0.22814189  0.01788562    -2.27780
O480        O  0.48453254  0.30122835  0.96557070    -0.72380
H481        H  0.04281087  0.31907957  0.00040152     0.79620
H482        H  0.44354010  0.26795051  0.01537275     0.80710
H483        H  0.00032520  0.25843501  0.91416729     0.82930
H484        H  0.05225827  0.21377033  0.02967661     0.80540
H485        H  0.42792319  0.31212716  0.02980391     0.43570
H486        H  0.40926086  0.29969846  0.95139808     0.42540
H487        H  0.44700272  0.22308705  0.92156812     0.42220
H488        H  0.00467316  0.20564315  0.91230919     0.40160
H489        H  0.09495627  0.22030933  0.97455540     0.43290
H490        H  0.10632332  0.22840344  0.03663261     0.38070
H491        H  0.05881477  0.29958733  0.07158223     0.44190
H492        H  0.01894648  0.33845008  0.04902556     0.40600
H493        H  0.03170436  0.18733391  0.92383357     0.45520
H494        H  0.12012501  0.25212734  0.04967223     0.44250
H495        H  0.48898675  0.34618432  0.05302433     0.44380
H496        H  0.40210735  0.28336309  0.92487341     0.44740
O497        O  0.33717843  0.06833017  0.81926530    -0.74130
O498        O  0.34220999  0.11175489  0.81748264    -0.53040
C499        C  0.33214870  0.08969738  0.82977776     0.79600
O500        O  0.47763157  0.06322595  0.74248347    -0.58730
O501        O  0.45445167  0.04902459  0.70083284    -0.51760
C502        C  0.47693723  0.05045888  0.71960552     0.71610
O503        O  0.44490793  0.09831268  0.82082878    -0.73290
O504        O  0.39701491  0.10493387  0.82815485    -0.53850
C505        C  0.42296450  0.09590195  0.83802401     0.77610
O506        O  0.37109929  0.01549691  0.75424817    -0.58430
O507        O  0.40102138  0.02340599  0.71294649    -0.51550
C508        C  0.38643357  0.00846524  0.73347000     0.74210
Zr509      Zr  0.36378857  0.05435299  0.77457285     2.54710
O510        O  0.38164021  0.02371885  0.82081883    -0.79000
O511        O  0.31587371  0.03350791  0.77220635    -0.92420
Zr512      Zr  0.44505907  0.08874870  0.76876719     2.64680
O513        O  0.47582153  0.05787356  0.80540488    -0.97370
O514        O  0.48580472  0.11934748  0.76423568    -0.79430
O515        O  0.39749130  0.08395214  0.78897796    -0.82790
O516        O  0.41246261  0.05721267  0.75374223    -2.17500
O517        O  0.33284485  0.07011524  0.66349010    -0.66180
O518        O  0.37730237  0.05292573  0.65734220    -0.50750
C519        C  0.34933384  0.05477907  0.65146617     0.72590
O520        O  0.39795724  0.18090110  0.72458332    -0.59090
O521        O  0.38461526  0.16876656  0.77483749    -0.51070
C522        C  0.39062312  0.18604830  0.75117088     0.74390
O523        O  0.44431685  0.13548467  0.66468221    -0.70480
O524        O  0.43947489  0.09351925  0.65731375    -0.49160
C525        C  0.45071906  0.11667843  0.65134725     0.75780
O526        O  0.30578973  0.13331022  0.71846906    -0.65810
O527        O  0.32631200  0.14539919  0.76325887    -0.53010
C528        C  0.30584054  0.14580125  0.74144349     0.74160
Zr529      Zr  0.33633822  0.10329448  0.69871012     2.77540
O530        O  0.32332288  0.13232852  0.64934491    -0.96560
O531        O  0.28610169  0.08701201  0.69928846    -0.77380
Zr532      Zr  0.41078516  0.14287880  0.70187992     2.70070
O533        O  0.39002405  0.17085981  0.65475190    -0.78630
O534        O  0.45269781  0.17191581  0.70396444    -0.97710
Zr535      Zr  0.37311753  0.12376279  0.77557686     2.21500
Zr536      Zr  0.40745175  0.06973259  0.69756774     2.11130
O537        O  0.38344040  0.11041693  0.67901795    -2.46400
O538        O  0.36381788  0.13578414  0.72019082    -0.78420
O539        O  0.35992182  0.06394045  0.71835989    -0.70620
O540        O  0.42107021  0.13003299  0.75665935    -2.31580
O541        O  0.34058503  0.09391654  0.75494750    -2.27780
O542        O  0.43675317  0.10272264  0.71489338    -0.72380
H543        H  0.42241204  0.04074137  0.75992081     0.79620
H544        H  0.43208581  0.14298439  0.76575180     0.80710
H545        H  0.38228955  0.11451807  0.65631800     0.82930
H546        H  0.32133754  0.09387909  0.76311320     0.80540
H547        H  0.48706663  0.12589057  0.78433782     0.43570
H548        H  0.47017621  0.16044562  0.70784747     0.42540
H549        H  0.36934912  0.17353777  0.65926013     0.42220
H550        H  0.32872876  0.12274389  0.63280863     0.40160
H551        H  0.28775147  0.06930934  0.71191238     0.43290
H552        H  0.30148329  0.04738078  0.77292348     0.38070
H553        H  0.38313187  0.03395024  0.83795660     0.44190
H554        H  0.47190974  0.04074327  0.79941951     0.40600
H555        H  0.30154834  0.13251403  0.64780307     0.45520
H556        H  0.31501518  0.02183914  0.79281131     0.44250
H557        H  0.49636060  0.06207130  0.80014384     0.44380
H558        H  0.45398374  0.18139129  0.68215631     0.44740
O559        O  0.34706404  0.33262902  0.81319995    -0.74130
O560        O  0.35036558  0.37681819  0.80429161    -0.53040
C561        C  0.34178010  0.35559963  0.81999043     0.79600
O562        O  0.48673263  0.31884363  0.74651646    -0.58730
O563        O  0.46576917  0.30297816  0.70468315    -0.51760
C564        C  0.48737224  0.30583972  0.72416871     0.71610
O565        O  0.45144963  0.36850652  0.81015656    -0.73290
O566        O  0.40441363  0.37206238  0.81962377    -0.53850
C567        C  0.43111798  0.36576339  0.82932964     0.77610
O568        O  0.38030979  0.26908244  0.75492901    -0.58430
O569        O  0.40796963  0.27516692  0.71168220    -0.51550
C570        C  0.39401246  0.26085286  0.73317009     0.74210
Zr571      Zr  0.37085283  0.31118209  0.77163787     2.54710
O572        O  0.38436201  0.28189103  0.82058937    -0.79000
O573        O  0.32189581  0.29221219  0.77014737    -0.92420
Zr574      Zr  0.45165522  0.34268304  0.76956018     2.64680
O575        O  0.46424129  0.30795252  0.81372310    -0.97370
O576        O  0.50025357  0.36111336  0.77719710    -0.79430
O577        O  0.40341816  0.34183362  0.78717205    -0.82790
O578        O  0.41974452  0.31116919  0.75320663    -2.17500
O579        O  0.34303689  0.32213723  0.66193669    -0.66180
O580        O  0.38605022  0.30096328  0.65963111    -0.50750
C581        C  0.35835785  0.30435836  0.65275022     0.72590
O582        O  0.41859093  0.43340679  0.70907062    -0.59090
O583        O  0.39789531  0.42685615  0.75642128    -0.51070
C584        C  0.40858038  0.44120027  0.73262186     0.74390
O585        O  0.46417368  0.37423173  0.66872241    -0.70480
O586        O  0.44049820  0.34280412  0.64865204    -0.49160
C587        C  0.45741990  0.36298301  0.64573714     0.75780
O588        O  0.31406878  0.38907973  0.71024799    -0.65810
O589        O  0.33607775  0.40505053  0.75163125    -0.53010
C590        C  0.31444499  0.40347296  0.73155415     0.74160
Zr591      Zr  0.34705570  0.35895764  0.69172626     2.77540
O592        O  0.34028970  0.38777709  0.64106232    -0.96560
O593        O  0.29560420  0.34718154  0.68455466    -0.77380
Zr594      Zr  0.42615109  0.39266280  0.69312359     2.70070
O595        O  0.41118828  0.41528352  0.64047375    -0.78630
O596        O  0.46758911  0.42261293  0.68908953    -0.97710
Zr597      Zr  0.38272141  0.38261115  0.76460637     2.21500
Zr598      Zr  0.41689630  0.32076287  0.69664304     2.11130
O599        O  0.39496401  0.36142618  0.67326942    -2.46400
O600        O  0.37731497  0.39178005  0.70884470    -0.78420
O601        O  0.36846869  0.31912110  0.71546929    -0.70620
O602        O  0.43175992  0.38443015  0.74870378    -2.31580
O603        O  0.34990629  0.35131229  0.74763423    -2.27780
O604        O  0.44846466  0.35224897  0.71423723    -0.72380
H605        H  0.42883435  0.29445129  0.76054307     0.79620
H606        H  0.44338642  0.39773929  0.75639797     0.80710
H607        H  0.39366073  0.36417022  0.65056993     0.82930
H608        H  0.33052978  0.35250517  0.75510716     0.80540
H609        H  0.50036170  0.37718875  0.76121707     0.43570
H610        H  0.48452861  0.41228038  0.69990713     0.42540
H611        H  0.39589603  0.42763961  0.64377978     0.42220
H612        H  0.33774917  0.37601409  0.62559471     0.40160
H613        H  0.29201253  0.33410533  0.70346221     0.43290
H614        H  0.30828616  0.30718472  0.76701165     0.38070
H615        H  0.40313092  0.28891637  0.82828777     0.44190
H616        H  0.46390857  0.29189264  0.80470565     0.40600
H617        H  0.32059181  0.39552942  0.64128327     0.45520
H618        H  0.31946297  0.28336855  0.79203226     0.44250
H619        H  0.48533630  0.31070667  0.81910268     0.44380
H620        H  0.47182571  0.42589410  0.66658199     0.44740
O621        O  0.09138702  0.20443828  0.82214882    -0.74130
O622        O  0.09805069  0.24813502  0.81578398    -0.53040
C623        C  0.08746443  0.22713926  0.82994624     0.79600
O624        O  0.23039276  0.18858462  0.74937762    -0.58730
O625        O  0.20676964  0.17075739  0.71065572    -0.51760
C626        C  0.22937788  0.17418645  0.72833147     0.71610
O627        O  0.19926810  0.22470252  0.82634968    -0.73290
O628        O  0.15169515  0.23483810  0.83042615    -0.53850
C629        C  0.17685659  0.22502121  0.84243485     0.77610
O630        O  0.11990663  0.14271424  0.76564773    -0.58430
O631        O  0.14879779  0.14695580  0.72354255    -0.51550
C632        C  0.13368077  0.13361146  0.74519430     0.74210
Zr633      Zr  0.11511514  0.18431436  0.78013713     2.54710
O634        O  0.12870174  0.15512742  0.82913175    -0.79000
O635        O  0.06521275  0.16733286  0.77802876    -0.92420
Zr636      Zr  0.19840837  0.21345152  0.77528089     2.64680
O637        O  0.22323702  0.17869624  0.81239971    -0.97370
O638        O  0.24239388  0.24035559  0.77427478    -0.79430
O639        O  0.15060050  0.21244984  0.79410897    -0.82790
O640        O  0.16403656  0.18292134  0.76086748    -2.17500
O641        O  0.08773788  0.19632017  0.66716993    -0.66180
O642        O  0.13067256  0.17534907  0.66434210    -0.50750
C643        C  0.10311621  0.17913913  0.65690653     0.72590
O644        O  0.15693542  0.30580491  0.72234134    -0.59090
O645        O  0.14630905  0.29661759  0.77365538    -0.51070
C646        C  0.15108083  0.31247342  0.74851848     0.74390
O647        O  0.20525232  0.25457596  0.67190473    -0.70480
O648        O  0.19292781  0.21428365  0.66222342    -0.49160
C649        C  0.20737573  0.23613413  0.65681710     0.75780
O650        O  0.06436629  0.26397470  0.71658945    -0.65810
O651        O  0.08497390  0.27752921  0.76040739    -0.53010
C652        C  0.06482734  0.27784612  0.73819244     0.74160
Zr653      Zr  0.09277642  0.23092908  0.70038649     2.77540
O654        O  0.08356335  0.25912079  0.64958600    -0.96560
O655        O  0.04125484  0.21818957  0.69936192    -0.77380
Zr656      Zr  0.16987533  0.26612177  0.70402428     2.70070
O657        O  0.15409662  0.29265143  0.65379536    -0.78630
O658        O  0.21288100  0.29384139  0.70694108    -0.97710
Zr659      Zr  0.13006331  0.25320641  0.77597608     2.21500
Zr660      Zr  0.16069833  0.19253640  0.70440525     2.11130
O661        O  0.14053593  0.23416066  0.68241622    -2.46400
O662        O  0.12217037  0.26304023  0.72037721    -0.78420
O663        O  0.11264081  0.19084029  0.72383805    -0.70620
O664        O  0.17857033  0.25589937  0.75907696    -2.31580
O665        O  0.09536722  0.22436926  0.75663597    -2.27780
O666        O  0.19199644  0.22468568  0.72083986    -0.72380
H667        H  0.17261800  0.16601154  0.76837392     0.79620
H668        H  0.19046143  0.26870750  0.76747132     0.80710
H669        H  0.14004516  0.23727445  0.65971618     0.82930
H670        H  0.07605124  0.22610990  0.76402713     0.80540
H671        H  0.24060917  0.25050179  0.79125725     0.43570
H672        H  0.22962973  0.28178057  0.71347801     0.42540
H673        H  0.13424357  0.29882907  0.65702993     0.42220
H674        H  0.08631500  0.24786936  0.63392230     0.40160
H675        H  0.04065655  0.20214162  0.71533274     0.43290
H676        H  0.05238224  0.18229608  0.77883211     0.38070
H677        H  0.14963772  0.15098292  0.82747542     0.44190
H678        H  0.21878340  0.16254970  0.80419582     0.40600
H679        H  0.06213355  0.26251176  0.64810437     0.45520
H680        H  0.06356867  0.15586198  0.79865688     0.44250
H681        H  0.24452825  0.18164871  0.80991862     0.44380
H682        H  0.21609890  0.30178623  0.68489494     0.44740
O683        O  0.09261484  0.44468238  0.81006001    -0.74130
O684        O  0.09303412  0.48872327  0.80482400    -0.53040
C685        C  0.08552145  0.46620673  0.81875696     0.79600
O686        O  0.23463855  0.44412410  0.74289037    -0.58730
O687        O  0.21381133  0.42846817  0.70084345    -0.51760
C688        C  0.23546832  0.43099196  0.72044531     0.71610
O689        O  0.19402058  0.49580084  0.80402340    -0.73290
O690        O  0.14762139  0.99728582  0.81636127    -0.53850
C691        C  0.17484784  0.99206091  0.82418476     0.77610
O692        O  0.13293724  0.39221254  0.74741807    -0.58430
O693        O  0.15942930  0.40091300  0.70346334    -0.51550
C694        C  0.14697042  0.38552298  0.72509371     0.74210
Zr695      Zr  0.11999051  0.43164143  0.76649418     2.54710
O696        O  0.13662845  0.40166157  0.81381479    -0.79000
O697        O  0.07316269  0.40931731  0.76226087    -0.92420
Zr698      Zr  0.19776455  0.46815472  0.76537553     2.64680
O699        O  0.21107827  0.43489719  0.81088471    -0.97370
O700        O  0.24560888  0.48825406  0.77179888    -0.79430
O701        O  0.14947185  0.46394710  0.78364018    -0.82790
O702        O  0.16880112  0.43534611  0.74797495    -2.17500
O703        O  0.08978398  0.44527995  0.65832786    -0.66180
O704        O  0.13473853  0.42839713  0.65299467    -0.50750
C705        C  0.10666226  0.42968350  0.64745849     0.72590
O706        O  0.15532660  0.05827304  0.70643595    -0.59090
O707        O  0.13539865  0.05033427  0.75417795    -0.51070
C708        C  0.14563210  0.06549651  0.73044843     0.74390
O709        O  0.20125770  0.00988951  0.65665741    -0.70480
O710        O  0.19636661  0.46861347  0.64995985    -0.49160
C711        C  0.20788014  0.49158792  0.64425768     0.75780
O712        O  0.05628150  0.00839859  0.70798147    -0.65810
O713        O  0.07685095  0.02393281  0.75046279    -0.53010
C714        C  0.05570971  0.02219556  0.72994443     0.74160
Zr715      Zr  0.09152817  0.48041441  0.68967363     2.77540
O716        O  0.08158492  0.00817073  0.63826529    -0.96560
O717        O  0.04137625  0.46442188  0.68518444    -0.77380
Zr718      Zr  0.16594914  0.01834502  0.69050378     2.70070
O719        O  0.14704223  0.04377110  0.64074226    -0.78630
O720        O  0.20763856  0.04763389  0.69295596    -0.97710
Zr721      Zr  0.12456928  0.00407933  0.76269506     2.21500
Zr722      Zr  0.16506779  0.44688101  0.69175477     2.11130
O723        O  0.13927045  0.48600670  0.67024233    -2.46400
O724        O  0.11776984  0.01411340  0.70708493    -0.78420
O725        O  0.11676398  0.44166120  0.71070096    -0.70620
O726        O  0.17323662  0.00885126  0.74561823    -2.31580
O727        O  0.09526144  0.47090533  0.74550872    -2.27780
O728        O  0.19304434  0.47992539  0.71021762    -0.72380
H729        H  0.17925285  0.41916399  0.75453451     0.79620
H730        H  0.18357012  0.02304869  0.75285935     0.80710
H731        H  0.13854700  0.98848694  0.64676684     0.82930
H732        H  0.07576179  0.47031128  0.75315305     0.80540
H733        H  0.24277517  0.00702985  0.75644297     0.43570
H734        H  0.22508549  0.03624389  0.69856396     0.42540
H735        H  0.12746182  0.04979815  0.64514693     0.42220
H736        H  0.08318415  0.99675400  0.62255543     0.40160
H737        H  0.03990024  0.45063901  0.70391560     0.43290
H738        H  0.05806033  0.42266782  0.76272298     0.38070
H739        H  0.15128339  0.41163507  0.82461771     0.44190
H740        H  0.20903577  0.41825841  0.80321002     0.40600
H741        H  0.06033801  0.01218726  0.63756465     0.45520
H742        H  0.07215440  0.39738674  0.78266045     0.44250
H743        H  0.23255569  0.43697866  0.81465458     0.44380
H744        H  0.20998480  0.05629178  0.67097719     0.44740
O745        O  0.23869867  0.02778838  0.39942812    -0.74130
O746        O  0.21968057  0.48865279  0.41170320    -0.53040
C747        C  0.21708253  0.01261820  0.39764870     0.79600
O748        O  0.36251208  0.03424815  0.47671426    -0.58730
O749        O  0.34325295  0.05368734  0.51406836    -0.51760
C750        C  0.36407317  0.04926403  0.49707609     0.71610
O751        O  0.32690844  0.47785165  0.41706144    -0.73290
O752        O  0.28449664  0.45498056  0.41359517    -0.53850
C753        C  0.31076077  0.46098659  0.40543196     0.77610
O754        O  0.26169512  0.08704087  0.45908163    -0.58430
O755        O  0.28259023  0.08141715  0.50884254    -0.51550
C756        C  0.27192926  0.09554193  0.48361811     0.74210
Zr757      Zr  0.24950540  0.04466098  0.44618041     2.54710
O758        O  0.25009019  0.07907689  0.40029623    -0.79000
O759        O  0.19905564  0.05738385  0.45218495    -0.92420
Zr760      Zr  0.32633624  0.00797356  0.45464544     2.64680
O761        O  0.33914292  0.03790557  0.40767104    -0.97370
O762        O  0.37537393  0.48795366  0.45666215    -0.79430
O763        O  0.27787472  0.01050366  0.43209664    -0.82790
O764        O  0.29877089  0.04340799  0.46609304    -2.17500
O765        O  0.22300654  0.02767401  0.55491303    -0.66180
O766        O  0.26936294  0.03806366  0.56938661    -0.50750
C767        C  0.24286202  0.03145498  0.57559232     0.72590
O768        O  0.29325274  0.42316869  0.52590198    -0.59090
O769        O  0.26700380  0.42565861  0.47851570    -0.51070
C770        C  0.27971362  0.41312080  0.50414104     0.74390
O771        O  0.32720103  0.48745066  0.58143976    -0.70480
O772        O  0.32271514  0.03192009  0.56836669    -0.49160
C773        C  0.33061857  0.51092232  0.58790488     0.75780
O774        O  0.19335581  0.46586805  0.50083528    -0.65810
O775        O  0.21191431  0.44763649  0.46237731    -0.53010
C776        C  0.19194813  0.45038181  0.48107395     0.74160
Zr777      Zr  0.22568777  0.49659173  0.52037326     2.77540
O778        O  0.20746599  0.46357323  0.56163866    -0.96560
O779        O  0.17553933  0.01455342  0.51753128    -0.77380
Zr780      Zr  0.30661099  0.46595143  0.53527733     2.70070
O781        O  0.29996257  0.43589262  0.58411245    -0.78630
O782        O  0.35655370  0.45001759  0.53486784    -0.97710
Zr783      Zr  0.25758955  0.47043036  0.45416748     2.21500
Zr784      Zr  0.29425624  0.03658333  0.52136460     2.11130
O785        O  0.27365755  0.49643607  0.54507069    -2.46400
O786        O  0.25783425  0.46464109  0.51050035    -0.78420
O787        O  0.24501074  0.03787391  0.50068105    -0.70620
O788        O  0.30658271  0.46930881  0.47894539    -2.31580
O789        O  0.22670227  0.00441853  0.46607884    -2.27780
O790        O  0.32727575  0.50449864  0.51042950    -0.72380
H791        H  0.30852701  0.05960078  0.45876218     0.79620
H792        H  0.31750562  0.45488797  0.47433975     0.80710
H793        H  0.27286076  0.49302487  0.56761733     0.82930
H794        H  0.20658996  0.00412465  0.45774853     0.80540
H795        H  0.37349727  0.47117458  0.47109848     0.43570
H796        H  0.36854288  0.46036034  0.54796021     0.42540
H797        H  0.27990760  0.43959006  0.58974842     0.42220
H798        H  0.22507038  0.45588212  0.57429210     0.40160
H799        H  0.17758805  0.03290661  0.50738656     0.43290
H800        H  0.18590557  0.04574043  0.44212363     0.38070
H801        H  0.27057225  0.07922208  0.39384110     0.44190
H802        H  0.33992614  0.05515433  0.41395066     0.40600
H803        H  0.19676024  0.47299168  0.57530866     0.45520
H804        H  0.19640046  0.07476577  0.43895415     0.44250
H805        H  0.35991119  0.03379786  0.40506558     0.44380
H806        H  0.35634432  0.43236945  0.54767347     0.44740
O807        O  0.21378231  0.28123237  0.41835190    -0.74130
O808        O  0.21816837  0.23816878  0.41719257    -0.53040
C809        C  0.20584387  0.26091966  0.40807821     0.79600
O810        O  0.36111921  0.28552321  0.48189060    -0.58730
O811        O  0.34251556  0.30425202  0.52025621    -0.51760
C812        C  0.36286395  0.30061672  0.50216468     0.71610
O813        O  0.32620962  0.22628505  0.42507870    -0.73290
O814        O  0.28341365  0.20394550  0.42129364    -0.53850
C815        C  0.31006309  0.20925545  0.41388686     0.77610
O816        O  0.25911711  0.33514307  0.46622168    -0.58430
O817        O  0.28051372  0.33065333  0.51575959    -0.51550
C818        C  0.26927419  0.34422098  0.49016395     0.74210
Zr819      Zr  0.24917362  0.29277358  0.45469087     2.54710
O820        O  0.26310560  0.31606465  0.40393888    -0.79000
O821        O  0.20518121  0.31888046  0.45449298    -0.92420
Zr822      Zr  0.32581905  0.25792008  0.46084742     2.64680
O823        O  0.33713475  0.28731780  0.41291698    -0.97370
O824        O  0.37445211  0.23855076  0.46315136    -0.79430
O825        O  0.27715917  0.26003808  0.43796748    -0.82790
O826        O  0.29818389  0.29233545  0.47416651    -2.17500
O827        O  0.22395008  0.27008670  0.56878666    -0.66180
O828        O  0.27011042  0.28344416  0.57996936    -0.50750
C829        C  0.24453323  0.27474226  0.58816875     0.72590
O830        O  0.29617969  0.17165488  0.52731111    -0.59090
O831        O  0.26684454  0.17548482  0.48161748    -0.51070
C832        C  0.28170822  0.16234968  0.50525553     0.74390
O833        O  0.33213939  0.23633985  0.58533707    -0.70480
O834        O  0.32560690  0.28016369  0.57405404    -0.49160
C835        C  0.33544556  0.25984311  0.59193727     0.75780
O836        O  0.19144167  0.21587052  0.50977292    -0.65810
O837        O  0.20990655  0.19765886  0.47119185    -0.53010
C838        C  0.18989436  0.20055872  0.48987215     0.74160
Zr839      Zr  0.22687931  0.24347482  0.53008211     2.77540
O840        O  0.21670940  0.20459849  0.56791705    -0.96560
O841        O  0.17779158  0.26048469  0.53282757    -0.77380
Zr842      Zr  0.30777789  0.21416889  0.54106284     2.70070
O843        O  0.29970644  0.18477496  0.59011323    -0.78630
O844        O  0.35752097  0.19769840  0.54083891    -0.97710
Zr845      Zr  0.25586612  0.22010157  0.46095875     2.21500
Zr846      Zr  0.29412482  0.28548164  0.52954640     2.11130
O847        O  0.27531098  0.24424816  0.55303423    -2.46400
O848        O  0.25851720  0.21249452  0.51752186    -0.78420
O849        O  0.24485569  0.28548160  0.50948237    -0.70620
O850        O  0.30543221  0.21883558  0.48470095    -2.31580
O851        O  0.22688094  0.25284754  0.47539063    -2.27780
O852        O  0.32638085  0.25383639  0.51658646    -0.72380
H853        H  0.30738338  0.30876216  0.46665430     0.79620
H854        H  0.31633384  0.20464235  0.47952147     0.80710
H855        H  0.27561328  0.24010912  0.57565633     0.82930
H856        H  0.20651835  0.25241739  0.46798073     0.80540
H857        H  0.37326371  0.22219336  0.47851394     0.43570
H858        H  0.37027672  0.21075389  0.54887496     0.42540
H859        H  0.28085855  0.17602475  0.58613753     0.42220
H860        H  0.23439367  0.20139388  0.58250642     0.40160
H861        H  0.17565956  0.27495487  0.51468693     0.43290
H862        H  0.18906092  0.30621593  0.45901114     0.38070
H863        H  0.28472096  0.31792541  0.40643544     0.44190
H864        H  0.34142659  0.30411249  0.41963508     0.40600
H865        H  0.20068047  0.20926967  0.58027254     0.45520
H866        H  0.20108130  0.32723713  0.43227765     0.44250
H867        H  0.35643819  0.28128776  0.40770022     0.44380
H868        H  0.35863128  0.18235830  0.55793856     0.44740
O869        O  0.46831438  0.15812799  0.41308489    -0.74130
O870        O  0.46849339  0.11428755  0.41569886    -0.53040
C871        C  0.45809830  0.13758453  0.40496411     0.79600
O872        O  0.11131942  0.15975801  0.48319768    -0.58730
O873        O  0.09218809  0.17877032  0.52103884    -0.51760
C874        C  0.11289419  0.17472619  0.50355797     0.71610
O875        O  0.07640807  0.10274183  0.42367623    -0.73290
O876        O  0.03354790  0.08077166  0.41893614    -0.53850
C877        C  0.06018124  0.08624128  0.41155280     0.77610
O878        O  0.00971359  0.21148477  0.46565050    -0.58430
O879        O  0.03023425  0.20618749  0.51559642    -0.51550
C880        C  0.01934402  0.22006328  0.49019135     0.74210
Zr881      Zr  0.50087757  0.16934199  0.45206287     2.54710
O882        O  0.01559065  0.19359276  0.40241432    -0.79000
O883        O  0.45580574  0.19429176  0.45057444    -0.92420
Zr884      Zr  0.07596192  0.13308970  0.46112204     2.64680
O885        O  0.08918955  0.16300732  0.41430722    -0.97370
O886        O  0.12403286  0.11256342  0.46436615    -0.79430
O887        O  0.02799661  0.13586241  0.43662027    -0.82790
O888        O  0.04869768  0.16815816  0.47351863    -2.17500
O889        O  0.46998959  0.14809011  0.56412162    -0.66180
O890        O  0.01668793  0.16102012  0.57725676    -0.50750
C891        C  0.48972742  0.15377738  0.58386524     0.72590
O892        O  0.04348581  0.04773921  0.52888669    -0.59090
O893        O  0.01654124  0.05112781  0.48174007    -0.51070
C894        C  0.03006920  0.03813052  0.50654955     0.74390
O895        O  0.07757935  0.11240284  0.58679397    -0.70480
O896        O  0.07180302  0.15625677  0.57529364    -0.49160
C897        C  0.08077934  0.13585832  0.59364971     0.75780
O898        O  0.44244466  0.08988134  0.50643336    -0.65810
O899        O  0.46107520  0.07292591  0.46698670    -0.53010
C900        C  0.44123749  0.07490018  0.48606749     0.74160
Zr901      Zr  0.47405072  0.12136948  0.52562074     2.77540
O902        O  0.45268930  0.08908396  0.56550792    -0.96560
O903        O  0.42654355  0.14300935  0.51403123    -0.77380
Zr904      Zr  0.05494436  0.09038710  0.54140785     2.70070
O905        O  0.04461015  0.06090960  0.58963093    -0.78630
O906        O  0.10467562  0.07342174  0.54317664    -0.97710
Zr907      Zr  0.00614541  0.09605730  0.45951536     2.21500
Zr908      Zr  0.04296213  0.16127119  0.52872087     2.11130
O909        O  0.02208429  0.12084897  0.55168448    -2.46400
O910        O  0.50625444  0.08951710  0.51577148    -0.78420
O911        O  0.49430882  0.16267016  0.50635042    -0.70620
O912        O  0.05486536  0.09430928  0.48500449    -2.31580
O913        O  0.47725427  0.12964523  0.47149754    -2.27780
O914        O  0.07516176  0.12923188  0.51691933    -0.72380
H915        H  0.05838348  0.18443224  0.46641217     0.79620
H916        H  0.06583382  0.07999830  0.48019233     0.80710
H917        H  0.02129435  0.11715068  0.57424363     0.82930
H918        H  0.45703248  0.12943580  0.46354926     0.80540
H919        H  0.12209783  0.09612942  0.47943504     0.43570
H920        H  0.11683237  0.08480116  0.55474217     0.42540
H921        H  0.02290817  0.06102918  0.59002882     0.42220
H922        H  0.46947963  0.08113524  0.57936897     0.40160
H923        H  0.43109878  0.16173699  0.51156946     0.43290
H924        H  0.43990958  0.18124400  0.45359034     0.38070
H925        H  0.03733960  0.19297658  0.40443843     0.44190
H926        H  0.09258668  0.17979159  0.42136277     0.40600
H927        H  0.44141647  0.09892806  0.57826325     0.45520
H928        H  0.45261393  0.20327115  0.42848572     0.44250
H929        H  0.10901365  0.15730867  0.41022820     0.44380
H930        H  0.10423212  0.05661870  0.55783881     0.44740
O931        O  0.46592092  0.40521762  0.41348592    -0.74130
O932        O  0.46883862  0.36175999  0.41429069    -0.53040
C933        C  0.45730494  0.38465411  0.40418918     0.79600
O934        O  0.11283324  0.40908418  0.47565640    -0.58730
O935        O  0.09462760  0.42992469  0.51245515    -0.51760
C936        C  0.11490240  0.42495382  0.49502221     0.71610
O937        O  0.07589458  0.34849790  0.42184746    -0.73290
O938        O  0.03282026  0.32633725  0.41972524    -0.53850
C939        C  0.05942730  0.33109540  0.41177947     0.77610
O940        O  0.00895199  0.46129380  0.46017265    -0.58430
O941        O  0.03317814  0.45762743  0.50822271    -0.51550
C942        C  0.02022928  0.47088571  0.48338839     0.74210
Zr943      Zr  0.00044302  0.41805039  0.44914693     2.54710
O944        O  0.01580537  0.44124264  0.39890132    -0.79000
O945        O  0.45638062  0.44402082  0.44689378    -0.92420
Zr946      Zr  0.07642118  0.38172729  0.45577745     2.64680
O947        O  0.08809415  0.40932805  0.40668038    -0.97370
O948        O  0.12476714  0.36173030  0.45843873    -0.79430
O949        O  0.02749671  0.38403291  0.43367250    -0.82790
O950        O  0.04973011  0.41750007  0.46762183    -2.17500
O951        O  0.47676232  0.40517151  0.55520352    -0.66180
O952        O  0.02166072  0.41464826  0.57191673    -0.50750
C953        C  0.99498372  0.40746402  0.57689686     0.72590
O954        O  0.04369543  0.29764276  0.52892876    -0.59090
O955        O  0.01542247  0.30034365  0.48274314    -0.51070
C956        C  0.02910745  0.28773601  0.50762519     0.74390
O957        O  0.08231236  0.36227516  0.58112401    -0.70480
O958        O  0.07848463  0.40620903  0.56726464    -0.49160
C959        C  0.08680276  0.38590260  0.58632846     0.75780
O960        O  0.44150704  0.34292933  0.50673381    -0.65810
O961        O  0.45959657  0.32336107  0.46902091    -0.53010
C962        C  0.43961513  0.32712229  0.48732997     0.74160
Zr963      Zr  0.47819640  0.36978106  0.52734358     2.77540
O964        O  0.47894410  0.33302227  0.57092007    -0.96560
O965        O  0.42829198  0.37935499  0.53894649    -0.77380
Zr966      Zr  0.05809541  0.34064004  0.53743374     2.70070
O967        O  0.05407714  0.31146691  0.58751099    -0.78630
O968        O  0.10754755  0.32460411  0.53409577    -0.97710
Zr969      Zr  0.00599580  0.34466176  0.45838182     2.21500
Zr970      Zr  0.04615728  0.41243744  0.52298400     2.11130
O971        O  0.02673540  0.37211164  0.54875131    -2.46400
O972        O  0.00865484  0.33861032  0.51476356    -0.78420
O973        O  0.99654628  0.41174678  0.50388998    -0.70620
O974        O  0.05571451  0.34327825  0.48138125    -2.31580
O975        O  0.47794577  0.37825482  0.47221866    -2.27780
O976        O  0.07729686  0.37945479  0.51129369    -0.72380
H977        H  0.05902024  0.43370253  0.45928619     0.79620
H978        H  0.06615693  0.32852110  0.47699937     0.80710
H979        H  0.02728562  0.36969659  0.57137937     0.82930
H980        H  0.45760358  0.37808471  0.46464605     0.80540
H981        H  0.12252099  0.34433245  0.47141756     0.43570
H982        H  0.11991994  0.33295335  0.54904278     0.42540
H983        H  0.03273643  0.30832129  0.58919982     0.42220
H984        H  0.49040781  0.33828671  0.58886195     0.40160
H985        H  0.42089119  0.39210886  0.52045823     0.43290
H986        H  0.44020903  0.43143630  0.45157862     0.38070
H987        H  0.03417147  0.43255277  0.39540509     0.44190
H988        H  0.09296272  0.42636134  0.41248863     0.40600
H989        H  0.45845785  0.33082965  0.57731458     0.45520
H990        H  0.45280349  0.45166899  0.42436425     0.44250
H991        H  0.10713441  0.40260242  0.40168954     0.44380
H992        H  0.10689804  0.30611353  0.54415671     0.44740
C993        C  0.01784118  0.24792703  0.48834841    -0.15270
C994        C  0.02862065  0.25954792  0.51169802    -0.30450
H995        H  0.00846433  0.25924040  0.46651878     0.13750
H996        H  0.03853987  0.24833477  0.53331059     0.14330
C997        C  0.03071875  0.00981470  0.50960552    -0.15270
C998        C  0.01804966  0.49915163  0.48089485    -0.30450
H999        H  0.04098701  0.99848216  0.53094315     0.13750
H1000       H  0.00847327  0.51042792  0.45915365     0.14330
C1001       C  0.16285160  0.18565471  0.48827697    -0.15270
C1002       C  0.14064582  0.18839427  0.50661023    -0.30450
H1003       H  0.16092986  0.17274066  0.47124854     0.13750
H1004       H  0.14255663  0.20134664  0.52359489     0.14330
C1005       C  0.41236710  0.31240438  0.48586995    -0.15270
C1006       C  0.39037937  0.31489736  0.50451385    -0.30450
H1007       H  0.41033083  0.29940564  0.46894079     0.13750
H1008       H  0.39243465  0.32784298  0.52149801     0.14330
C1009       C  0.16506815  0.43518418  0.47965272    -0.15270
C1010       C  0.14267087  0.43863322  0.49732135    -0.30450
H1011       H  0.16331975  0.42167706  0.46331517     0.13750
H1012       H  0.14443347  0.45225220  0.51352276     0.14330
C1013       C  0.27930441  0.38481013  0.50917771    -0.15270
C1014       C  0.26790593  0.37231865  0.48699806    -0.30450
H1015       H  0.28950601  0.37411799  0.53096363     0.13750
H1016       H  0.25803839  0.38308528  0.46507353     0.14330
C1017       C  0.27132014  0.12349504  0.48265489    -0.15270
C1018       C  0.28241253  0.13426393  0.50683624    -0.30450
H1019       H  0.26162212  0.13545902  0.46144684     0.13750
H1020       H  0.29265608  0.12237597  0.52780284     0.14330
C1021       C  0.39180585  0.06258247  0.50110837    -0.15270
C1022       C  0.41468975  0.05946514  0.48403279    -0.30450
H1023       H  0.39304574  0.07584165  0.51775811     0.13750
H1024       H  0.41341884  0.04633978  0.46722606     0.14330
C1025       C  0.22810007  0.99866723  0.61815297    -0.15270
C1026       C  0.23520383  0.02386812  0.60800598    -0.30450
H1027       H  0.23505469  0.98396587  0.60570405     0.13750
H1028       H  0.22939213  0.03917157  0.62038510     0.14330
C1029       C  0.09177594  0.41395843  0.62567027    -0.15270
C1030       C  0.10156153  0.39232133  0.61589501    -0.30450
H1031       H  0.07074787  0.42207545  0.61539280     0.13750
H1032       H  0.12120447  0.38206031  0.62674149     0.14330
C1033       C  0.22630884  0.24228363  0.63009059    -0.15270
C1034       C  0.23844778  0.26623531  0.62136638    -0.30450
H1035       H  0.22678524  0.22847652  0.61461751     0.13750
H1036       H  0.23963463  0.28043501  0.63680436     0.14330
C1037       C  0.09548037  0.14204593  0.62386863    -0.15270
C1038       C  0.08760848  0.16461060  0.63354133    -0.30450
H1039       H  0.11368451  0.13029142  0.63579962     0.13750
H1040       H  0.06785700  0.17446781  0.62218363     0.14330
C1041       C  0.14856631  0.33999313  0.74983105    -0.15270
C1042       C  0.14974820  0.35806680  0.72399211    -0.30450
H1043       H  0.14479474  0.34546809  0.77230397     0.13750
H1044       H  0.15431293  0.35274769  0.70164396     0.14330
C1045       C  0.13206564  0.10544611  0.74774817    -0.15270
C1046       C  0.14722073  0.09337781  0.72946619    -0.30450
H1047       H  0.11831257  0.09445122  0.76504277     0.13750
H1048       H  0.16054912  0.10451133  0.71183957     0.14330
C1049       C  0.34235049  0.28840959  0.63148389    -0.15270
C1050       C  0.35108443  0.26633742  0.62139573    -0.30450
H1051       H  0.32141442  0.29696919  0.62162322     0.13750
H1052       H  0.37069413  0.25578061  0.63178304     0.14330
C1053       C  0.46688474  0.37555710  0.61454590    -0.15270
C1054       C  0.48712009  0.39493775  0.61012874    -0.30450
H1055       H  0.45546733  0.36969438  0.59435473     0.13750
H1056       H  0.99920510  0.40115075  0.62906557     0.14330
C1057       C  0.03957443  0.29463059  0.73807609    -0.15270
C1058       C  0.01603051  0.29350729  0.71807451    -0.30450
H1059       H  0.03943597  0.30653581  0.75617763     0.13750
H1060       H  0.51485463  0.28096614  0.70270637     0.14330
C1061       C  0.28792939  0.41889414  0.73420807    -0.15270
C1062       C  0.26290010  0.41734651  0.71649881    -0.30450
H1063       H  0.28869554  0.43102457  0.75210994     0.13750
H1064       H  0.26220127  0.40518719  0.69862814     0.14330
C1065       C  0.33469794  0.04017721  0.62774643    -0.15270
C1066       C  0.34375765  0.01792375  0.61828597    -0.30450
H1067       H  0.31487441  0.04958508  0.61592986     0.13750
H1068       H  0.36166686  0.50546228  0.63131260     0.14330
C1069       C  0.48157261  0.14748748  0.61653981    -0.15270
C1070       C  0.47184739  0.12297866  0.62671718    -0.30450
H1071       H  0.47769639  0.16322760  0.62899173     0.13750
H1072       H  0.47724799  0.10776354  0.61420988     0.14330
C1073       C  0.50354114  0.03614158  0.71442838    -0.15270
C1074       C  0.02904476  0.03721271  0.73306981    -0.30450
H1075       H  0.50235758  0.02468040  0.69583955     0.13750
H1076       H  0.03005451  0.04879041  0.75155361     0.14330
C1077       C  0.38629781  0.47956827  0.74319737    -0.15270
C1078       C  0.40817314  0.46881858  0.73106725    -0.30450
H1079       H  0.37222170  0.96878995  0.74880598     0.13750
H1080       H  0.42424364  0.48054808  0.71731786     0.14330
C1081       C  0.39438738  0.23298643  0.73131232    -0.15270
C1082       C  0.38860421  0.21359907  0.75486317    -0.30450
H1083       H  0.40124555  0.22825627  0.70941740     0.13750
H1084       H  0.38242249  0.21796709  0.77716476     0.14330
C1085       C  0.28012438  0.16144990  0.74342476    -0.15270
C1086       C  0.25599269  0.16038102  0.72441686    -0.30450
H1087       H  0.28058189  0.17308088  0.76184038     0.13750
H1088       H  0.25533279  0.14838193  0.70636898     0.14330
C1089       C  0.46481020  0.33961601  0.86909309    -0.15270
C1090       C  0.43776007  0.35016326  0.86147204    -0.30450
H1091       H  0.48222618  0.34598408  0.85343745     0.13750
H1092       H  0.42000473  0.34477848  0.87695675     0.14330
C1093       C  0.06717601  0.25433902  0.86518817    -0.15270
C1094       C  0.07109455  0.23030394  0.85760847    -0.30450
H1095       H  0.07386524  0.27175606  0.84964605     0.13750
H1096       H  0.06379832  0.21291638  0.87276022     0.14330
C1097       C  0.43783551  0.05331255  0.86756178    -0.15270
C1098       C  0.42686533  0.07734216  0.86784261    -0.30450
H1099       H  0.44039661  0.04719751  0.84532906     0.13750
H1100       H  0.42217234  0.08353883  0.88954284     0.14330
C1101       C  0.06802371  0.46616977  0.84698849    -0.15270
C1102       C  0.06739816  0.48814295  0.85946210    -0.30450
H1103       H  0.05702004  0.44869947  0.85787746     0.13750
H1104       H  0.08049702  0.00618699  0.84740888     0.14330
C1105       C  0.00763369  0.38542419  0.95349861    -0.15270
C1106       C  0.01671743  0.39855393  0.97609316    -0.30450
H1107       H  0.00298998  0.39539908  0.92949686     0.13750
H1108       H  0.02336367  0.38748845  0.99917449     0.14330
C1109       C  0.00876088  0.13082461  0.00432242    -0.15270
C1110       C  0.01432784  0.14260689  0.02915078    -0.30450
H1111       H  0.49751712  0.14323181  0.98085185     0.13750
H1112       H  0.01752683  0.13162375  0.05285625     0.14330
C1113       C  0.32210001  0.38317033  0.85598179    -0.15270
C1114       C  0.32606089  0.35903624  0.84821473    -0.30450
H1115       H  0.32889561  0.40058752  0.84052787     0.13750
H1116       H  0.31900708  0.34164335  0.86351297     0.14330
C1117       C  0.21217696  0.46863913  0.86219345    -0.15270
C1118       C  0.18418719  0.47695985  0.85627412    -0.30450
H1119       H  0.22858204  0.47646787  0.84587718     0.13750
H1120       H  0.16667610  0.97053510  0.87211083     0.14330
C1121       C  0.14856196  0.32595884  0.99229751    -0.15270
C1122       C  0.12628685  0.32872474  0.96933164    -0.30450
H1123       H  0.14678732  0.31180639  0.01372326     0.13750
H1124       H  0.12806200  0.34280714  0.94785056     0.14330
C1125       C  0.37563156  0.46125478  0.96003071    -0.15270
C1126       C  0.40057035  0.45606181  0.94738020    -0.30450
H1127       H  0.37512071  0.47673565  0.97362414     0.13750
H1128       H  0.40117292  0.44047634  0.93395163     0.14330
C1129       C  0.31310593  0.11239225  0.87032629    -0.15270
C1130       C  0.31409382  0.09015140  0.85796224    -0.30450
H1131       H  0.32621256  0.12874358  0.85991168     0.13750
H1132       H  0.30279804  0.07281997  0.86876016     0.14330
C1133       C  0.18811242  0.18333216  0.87657934    -0.15270
C1134       C  0.17921458  0.20845851  0.87397697    -0.30450
H1135       H  0.18985916  0.17527237  0.85544922     0.13750
H1136       H  0.17645432  0.21711593  0.89455728     0.14330
C1137       C  0.12484649  0.08237659  0.99422383    -0.15270
C1138       C  0.14437750  0.08430690  0.97111731    -0.30450
H1139       H  0.13060246  0.08920450  0.01603682     0.13750
H1140       H  0.13895440  0.07665783  0.94978072     0.14330
C1141       C  0.25882736  0.25228063  0.02877602    -0.15270
C1142       C  0.25230161  0.27147302  0.00440408    -0.30450
H1143       H  0.26757796  0.25667840  0.05112061     0.13750
H1144       H  0.24529733  0.26659133  0.98173354     0.14330
C1145       C  0.26693119  0.02502637  0.97774232    -0.15270
C1146       C  0.25528124  0.01285284  0.95528554    -0.30450
H1147       H  0.27694611  0.01314755  0.99892744     0.13750
H1148       H  0.24681101  0.02361316  0.93276916     0.14330
C1149       C  0.39411616  0.20511396  0.01716066    -0.15270
C1150       C  0.36786153  0.21495569  0.00562291    -0.30450
H1151       H  0.39536808  0.18583059  0.03151456     0.13750
H1152       H  0.36645112  0.23383350  0.99039397     0.14330
C1153       C  0.18664944  0.34551375  0.11681277    -0.15270
C1154       C  0.19184288  0.37117065  0.10437680    -0.30450
H1155       H  0.19287883  0.33022507  0.10460269     0.13750
H1156       H  0.18545338  0.38653813  0.11637360     0.14330
C1157       C  0.07905811  0.25536701  0.13241691    -0.15270
C1158       C  0.05144729  0.24701597  0.12612680    -0.30450
H1159       H  0.09608520  0.25236614  0.11694145     0.13750
H1160       H  0.03412684  0.24915516  0.14159827     0.14330
C1161       C  0.16595397  0.28895338  0.37956976    -0.15270
C1162       C  0.18169049  0.26623876  0.38321427    -0.30450
H1163       H  0.16383680  0.29881588  0.39932286     0.13750
H1164       H  0.18218487  0.25572993  0.36384983     0.14330
C1165       C  0.06318195  0.29857800  0.37278441    -0.15270
C1166       C  0.07326081  0.31778585  0.38835074    -0.30450
H1167       H  0.04366992  0.28741281  0.37945288     0.13750
H1168       H  0.09388450  0.32688992  0.38101114     0.14330
C1169       C  0.22220709  0.09059203  0.13715957    -0.15270
C1170       C  0.23654457  0.11418000  0.13265931    -0.30450
H1171       H  0.22066232  0.07941474  0.11829861     0.13750
H1172       H  0.23974907  0.12516199  0.15158455     0.14330
C1173       C  0.08145043  0.01791184  0.12902397    -0.15270
C1174       C  0.09015667  0.00091262  0.11081160    -0.30450
H1175       H  0.06012256  0.02717590  0.12258489     0.13750
H1176       H  0.11022519  0.98965613  0.11673157     0.14330
C1177       C  0.12655808  0.42570290  0.26288130    -0.15270
C1178       C  0.13501945  0.44483942  0.23986946    -0.30450
H1179       H  0.11864458  0.43040218  0.28432777     0.13750
H1180       H  0.14347521  0.43995929  0.21875699     0.14330
C1181       C  0.13490848  0.17635010  0.26206579    -0.15270
C1182       C  0.13433775  0.19419877  0.23565097    -0.30450
H1183       H  0.13141374  0.18175818  0.28463494     0.13750
H1184       H  0.13833880  0.18894230  0.21312483     0.14330
C1185       C  0.18431332  0.04999931  0.37657459    -0.15270
C1186       C  0.19003465  0.02415722  0.37937137    -0.30450
H1187       H  0.19770639  0.06103759  0.39087680     0.13750
H1188       H  0.17712350  0.01254268  0.36518839     0.14330
C1189       C  0.06634063  0.05526496  0.37079538    -0.15270
C1190       C  0.07425413  0.07517368  0.38632389    -0.30450
H1191       H  0.04833262  0.04232535  0.37806556     0.13750
H1192       H  0.09392558  0.08593000  0.37896423     0.14330
C1193       C  0.33232772  0.39057534  0.12203174    -0.15270
C1194       C  0.30513692  0.38049137  0.11586822    -0.30450
H1195       H  0.34938916  0.38802990  0.10642378     0.13750
H1196       H  0.28757425  0.38195189  0.13127483     0.14330
C1197       C  0.46564105  0.47139946  0.12419419    -0.15270
C1198       C  0.47994087  0.99543722  0.11816510    -0.30450
H1199       H  0.46413944  0.45925564  0.10631623     0.13750
H1200       H  0.48280835  0.00745240  0.13608272     0.14330
C1201       C  0.49420102  0.37147726  0.22635790    -0.15270
C1202       C  0.01485257  0.36836108  0.25091689    -0.30450
H1203       H  0.49608164  0.36183270  0.20636636     0.13750
H1204       H  0.01312688  0.37815693  0.27077615     0.14330
C1205       C  0.25224265  0.00476213  0.22605824    -0.15270
C1206       C  0.27719014  0.50445380  0.24799368    -0.30450
H1207       H  0.25332743  0.49376236  0.20878251     0.13750
H1208       H  0.27592568  0.01574733  0.26518340     0.14330
C1209       C  0.31514558  0.43087337  0.36355827    -0.15270
C1210       C  0.32436759  0.44991632  0.37994167    -0.30450
H1211       H  0.29651035  0.41856785  0.37041894     0.13750
H1212       H  0.34442832  0.46011481  0.37276297     0.14330
C1213       C  0.41806004  0.41278726  0.37512142    -0.15270
C1214       C  0.43330986  0.38981446  0.37921535    -0.30450
H1215       H  0.41540022  0.42252265  0.39487968     0.13750
H1216       H  0.43429592  0.37939529  0.35979070     0.14330
C1217       C  0.33065519  0.13242439  0.14217039    -0.15270
C1218       C  0.34334484  0.12049135  0.12119022    -0.30450
H1219       H  0.30706389  0.13597563  0.13870427     0.13750
H1220       H  0.36675105  0.11635208  0.12324860     0.14330
C1221       C  0.44320563  0.22344051  0.12311024    -0.15270
C1222       C  0.44735577  0.24943435  0.11235639    -0.30450
H1223       H  0.44746998  0.20910612  0.10868694     0.13750
H1224       H  0.44399817  0.26383135  0.12694651     0.14330
C1225       C  0.50310888  0.13054186  0.23456410    -0.15270
C1226       C  0.02510094  0.12704371  0.25446861    -0.30450
H1227       H  0.50399680  0.12095168  0.21440663     0.13750
H1228       H  0.02438762  0.13660063  0.27467176     0.14330
C1229       C  0.37672760  0.30534651  0.25794616    -0.15270
C1230       C  0.38328205  0.32293761  0.23231164    -0.30450
H1231       H  0.36937059  0.31153256  0.27881139     0.13750
H1232       H  0.39144436  0.31677563  0.21178719     0.14330
C1233       C  0.39071886  0.07272829  0.23848784    -0.15270
C1234       C  0.38635339  0.05316830  0.26215193    -0.30450
H1235       H  0.39735301  0.06886561  0.21609485     0.13750
H1236       H  0.38020502  0.05696182  0.28474514     0.14330
C1237       C  0.26853691  0.25014038  0.25194054    -0.15270
C1238       C  0.24638908  0.25190311  0.22924679    -0.30450
H1239       H  0.26687933  0.26008701  0.27170173     0.13750
H1240       H  0.24789350  0.24183259  0.20957295     0.14330
C1241       C  0.31508010  0.17787309  0.37397005    -0.15270
C1242       C  0.32430266  0.19713227  0.38980291    -0.30450
H1243       H  0.29610260  0.16594018  0.38060747     0.13750
H1244       H  0.34461218  0.20695238  0.38267477     0.14330
C1245       C  0.43252792  0.14331082  0.38190014    -0.15270
C1246       C  0.41709279  0.16586592  0.38091989    -0.30450
H1247       H  0.43202743  0.13404561  0.36144082     0.13750
H1248       H  0.41593476  0.17404995  0.40211065     0.14330
O1249       O  0.33670489  0.65492197  0.33416079    -0.74130
O1250       O  0.33558536  0.69899170  0.33045671    -0.53040
C1251       C  0.33028506  0.67610371  0.34461944     0.79600
O1252       O  0.47273455  0.65391029  0.26288908    -0.58730
O1253       O  0.45420059  0.64373254  0.21672316    -0.51760
C1254       C  0.47472617  0.64322706  0.23866754     0.71610
O1255       O  0.40860812  0.66680657  0.32877251    -0.73290
O1256       O  0.39246919  0.70335093  0.34061237    -0.53850
C1257       C  0.40644471  0.68146155  0.34882938     0.77610
O1258       O  0.37283103  0.60435809  0.26454849    -0.59230
O1259       O  0.39860324  0.61530749  0.22017307    -0.51550
C1260       C  0.38668479  0.59892296  0.24139768     0.74210
Zr1261     Zr  0.35940264  0.64253572  0.28588796     2.54710
O1262       O  0.37641724  0.61204210  0.33262706    -0.79000
O1263       O  0.31154529  0.62261407  0.27861945    -0.92420
Zr1264     Zr  0.43754454  0.67975975  0.28435895     2.64680
O1265       O  0.47204190  0.65882862  0.32634293    -0.97370
O1266       O  0.47097559  0.71271362  0.29915013    -0.79430
O1267       O  0.38825170  0.67638671  0.29522309    -0.82790
O1268       O  0.40874396  0.64717915  0.26603229    -2.17500
O1269       O  0.32884597  0.66120411  0.17812770    -0.66180
O1270       O  0.37366272  0.64566798  0.16975759    -0.50750
C1271       C  0.34552750  0.64704033  0.16503951     0.72590
O1272       O  0.38912694  0.77145553  0.23250895    -0.59090
O1273       O  0.37176285  0.76200093  0.28129341    -0.51070
C1274       C  0.37911476  0.77802431  0.25684891     0.74390
O1275       O  0.42850661  0.73018737  0.17103825    -0.70480
O1276       O  0.42552383  0.68835219  0.16308279    -0.49160
C1277       C  0.43205244  0.71274783  0.15480930     0.75780
O1278       O  0.29675397  0.72272163  0.22871401    -0.65810
O1279       O  0.31473126  0.73474431  0.27439272    -0.53010
C1280       C  0.29498426  0.73499135  0.25159381     0.74160
Zr1281     Zr  0.33074232  0.69319304  0.21327774     2.77540
O1282       O  0.31476661  0.72004968  0.16329135    -0.96560
O1283       O  0.28243909  0.67306207  0.21820038    -0.77380
Zr1284     Zr  0.40596015  0.73269325  0.21736199     2.70070
O1285       O  0.39462631  0.76779305  0.17338339    -0.78630
O1286       O  0.45334752  0.75203252  0.22870746    -0.97710
Zr1287     Zr  0.36372334  0.71540616  0.28812889     2.21500
Zr1288     Zr  0.40445717  0.66158325  0.21005262     2.11130
O1289       O  0.37805716  0.70121448  0.19440589    -2.46400
O1290       O  0.35741309  0.72689853  0.23282929    -0.78420
O1291       O  0.35646364  0.65423048  0.23016890    -0.70620
O1292       O  0.41330075  0.72120750  0.27237507    -2.31580
O1293       O  0.33427136  0.68249311  0.26902442    -2.27780
O1294       O  0.43382625  0.69363535  0.22959433    -0.72380
H1295       H  0.41949564  0.63107138  0.27175962     0.79620
H1296       H  0.42323310  0.73460843  0.28164264     0.80710
H1297       H  0.37586932  0.70614743  0.17181111     0.82930
H1298       H  0.31487979  0.68157026  0.27699459     0.80540
H1299       H  0.46666014  0.71356399  0.32106883     0.43570
H1300       H  0.46808942  0.73980574  0.22387068     0.42540
H1301       H  0.37455147  0.76383830  0.16543645     0.42220
H1302       H  0.32453754  0.71252317  0.14720971     0.40160
H1303       H  0.28644998  0.65419852  0.22298644     0.43290
H1304       H  0.29779712  0.63283495  0.28839739     0.38070
H1305       H  0.39775477  0.61020621  0.33039807     0.44190
H1306       H  0.46986506  0.64004319  0.32619509     0.40600
H1307       H  0.29372467  0.71568372  0.16016776     0.45520
H1308       H  0.31288561  0.60560794  0.29291144     0.44250
H1309       H  0.49187390  0.66319188  0.31883341     0.44380
H1310       H  0.45464991  0.76744275  0.21188677     0.44740
O1311       O  0.39686735  0.52099557  0.23191724    -0.74130
O1312       O  0.38140895  0.00870501  0.28050245    -0.53040
C1313       C  0.38928886  0.52532473  0.25867113     0.79600
O1314       O  0.32564537  0.91703245  0.16202241    -0.58730
O1315       O  0.37152673  0.90369919  0.15399767    -0.51760
C1316       C  0.34340765  0.90428676  0.14808333     0.71610
O1317       O  0.30233815  0.97823830  0.21971658    -0.73290
O1318       O  0.32195007  0.98839307  0.26587561    -0.53850
C1319       C  0.30194245  0.98979475  0.24345987     0.77610
O1320       O  0.44232581  0.98121866  0.16730056    -0.58430
O1321       O  0.43540450  0.94023515  0.15695078    -0.51550
C1322       C  0.44714917  0.96346233  0.15166472     0.74210
Zr1323     Zr  0.40965032  0.98547060  0.20676945     2.54710
O1324       O  0.39497100  0.51790036  0.16362396    -0.79000
O1325       O  0.45558310  0.00862377  0.21383873    -0.92420
Zr1326     Zr  0.33282325  0.94894985  0.19858265     2.64680
O1327       O  0.32504744  0.98065781  0.15033725    -0.97370
O1328       O  0.28123717  0.93675918  0.19447005    -0.79430
O1329       O  0.36134506  0.97946813  0.22252789    -0.82790
O1330       O  0.38102948  0.95551275  0.18101903    -2.17500
O1331       O  0.46786806  0.90046737  0.25081287    -0.66180
O1332       O  0.44939179  0.89105665  0.20428518    -0.50750
C1333       C  0.46891463  0.88908788  0.22717406     0.72590
O1334       O  0.33347435  0.90939683  0.32114598    -0.59090
O1335       O  0.33600301  0.95312099  0.31833750    -0.51070
C1336       C  0.32841202  0.93069130  0.33200316     0.74390
O1337       O  0.36715553  0.85828945  0.25266933    -0.70480
O1338       O  0.39458847  0.86714998  0.20933062    -0.49160
C1339       C  0.38130939  0.85159099  0.23067812     0.75780
O1340       O  0.43695949  0.93558581  0.32561096    -0.65810
O1341       O  0.38942008  0.94516280  0.33096831    -0.53010
C1342       C  0.41455362  0.93494110  0.34186042     0.74160
Zr1343     Zr  0.43812893  0.92950359  0.27271917     2.77540
O1344       O  0.46808075  0.90055985  0.31260372    -0.96560
O1345       O  0.47995143  0.95891746  0.26807554    -0.77380
Zr1346     Zr  0.35666529  0.89672302  0.27310479     2.70070
O1347       O  0.36998786  0.86261719  0.31760554    -0.78630
O1348       O  0.30725184  0.87972229  0.26603625    -0.97710
Zr1349     Zr  0.36768488  0.96512864  0.27781307     2.21500
Zr1350     Zr  0.40342067  0.91408674  0.19734892     2.11130
O1351       O  0.40566706  0.89987472  0.25353728    -2.46400
O1352       O  0.39020648  0.92469251  0.29117221    -0.78420
O1353       O  0.43378559  0.94460285  0.21852478    -0.70620
O1354       O  0.33478849  0.93706546  0.25468280    -2.31580
O1355       O  0.41650284  0.97125372  0.26171507    -2.27780
O1356       O  0.35515536  0.90862949  0.21685154    -0.72380
H1357       H  0.38056732  0.96063898  0.15842551     0.79620
H1358       H  0.31537228  0.93709226  0.26245213     0.80710
H1359       H  0.41504759  0.88312875  0.25934155     0.82930
H1360       H  0.42760570  0.98323921  0.27236657     0.80540
H1361       H  0.27789578  0.92560614  0.21494061     0.43570
H1362       H  0.30480995  0.87890858  0.24336080     0.42540
H1363       H  0.39171500  0.86347214  0.32000636     0.42220
H1364       H  0.46375517  0.88276172  0.30894333     0.40160
H1365       H  0.49393902  0.95084543  0.25609009     0.43290
H1366       H  0.45550068  0.01314243  0.23505393     0.38070
H1367       H  0.37341376  0.51902170  0.16492328     0.44190
H1368       H  0.32603642  0.97050081  0.13324487     0.40600
H1369       H  0.48872644  0.90386106  0.30715374     0.45520
H1370       H  0.45612674  0.52272709  0.20004699     0.44250
H1371       H  0.30407478  0.98558676  0.14981717     0.44380
H1372       H  0.30855976  0.86137095  0.27667000     0.44740
O1373       O  0.14855872  0.64383382  0.23642203    -0.74130
O1374       O  0.13488176  0.63285066  0.28669770    -0.53040
C1375       C  0.14022363  0.64937599  0.26218688     0.79600
O1376       O  0.08349638  0.54488778  0.16988768    -0.58730
O1377       O  0.12612577  0.52458698  0.16368065    -0.51760
C1378       C  0.09882544  0.53006998  0.15630515     0.71610
O1379       O  0.05326216  0.59985770  0.23022737    -0.73290
O1380       O  0.07346085  0.61009856  0.27606097    -0.53850
C1381       C  0.05261154  0.61113957  0.25415061     0.77610
O1382       O  0.19917090  0.60000736  0.18040594    -0.58430
O1383       O  0.18961376  0.56002977  0.16817456    -0.51550
C1384       C  0.20306943  0.58246245  0.16428640     0.74210
Zr1385     Zr  0.16389526  0.60669277  0.21577606     2.54710
O1386       O  0.14851511  0.63660545  0.16792353    -0.79000
O1387       O  0.20857914  0.63172799  0.22223402    -0.92420
Zr1388     Zr  0.08696258  0.57241209  0.21007615     2.64680
O1389       O  0.07805307  0.60660551  0.16441346    -0.97370
O1390       O  0.03686186  0.55657366  0.20464427    -0.79430
O1391       O  0.11586035  0.60295831  0.23260337    -0.82790
O1392       O  0.13470040  0.57686875  0.19116418    -2.17500
O1393       O  0.22630563  0.52965256  0.25570480    -0.66180
O1394       O  0.20402111  0.51490734  0.21382600    -0.50750
C1395       C  0.22619475  0.51724150  0.23275863     0.72590
O1396       O  0.08640003  0.53327786  0.33101426    -0.59090
O1397       O  0.09056802  0.57697023  0.32829611    -0.51070
C1398       C  0.08181824  0.55484041  0.34158561     0.74390
O1399       O  0.12023196  0.97893755  0.26351650    -0.70480
O1400       O  0.14708709  0.48843278  0.22041530    -0.49160
C1401       C  0.13362923  0.97230553  0.24079626     0.75780
O1402       O  0.19403893  0.57125189  0.32774857    -0.65810
O1403       O  0.14714668  0.57091167  0.34014587    -0.53010
C1404       C  0.17465459  0.56575402  0.34753718     0.74160
Zr1405     Zr  0.19195983  0.55083965  0.28301007     2.77540
O1406       O  0.21004136  0.51319862  0.32051245    -0.96560
O1407       O  0.23970814  0.57137598  0.28842241    -0.77380
Zr1408     Zr  0.11082978  0.51901783  0.28440687     2.70070
O1409       O  0.12362482  0.98561251  0.32867970    -0.78630
O1410       O  0.06165152  0.50148532  0.27757910    -0.97710
Zr1411     Zr  0.12178657  0.58851556  0.28775542     2.21500
Zr1412     Zr  0.15657692  0.53517656  0.20801586     2.11130
O1413       O  0.15943654  0.52115523  0.26416631    -2.46400
O1414       O  0.14423985  0.54736008  0.30308024    -0.78420
O1415       O  0.18696930  0.56565927  0.22887758    -0.70620
O1416       O  0.08932321  0.55972716  0.26580609    -2.31580
O1417       O  0.17053290  0.59296614  0.27047194    -2.27780
O1418       O  0.10844963  0.53143552  0.22812261    -0.72380
H1419       H  0.13394596  0.58172433  0.16853044     0.79620
H1420       H  0.06990352  0.55980923  0.27353710     0.80710
H1421       H  0.16886074  0.50441752  0.26972530     0.82930
H1422       H  0.18187020  0.60542539  0.28011534     0.80540
H1423       H  0.03381738  0.54525140  0.22508033     0.43570
H1424       H  0.05980408  0.49924040  0.25532924     0.42540
H1425       H  0.14535184  0.98477752  0.32905705     0.42220
H1426       H  0.21028667  0.49880364  0.30855789     0.40160
H1427       H  0.24117204  0.58376597  0.26843401     0.43290
H1428       H  0.20844419  0.63609703  0.24351966     0.38070
H1429       H  0.12895167  0.64285375  0.17205303     0.44190
H1430       H  0.08347301  0.59888050  0.14631316     0.40600
H1431       H  0.23105782  0.51700666  0.32493194     0.45520
H1432       H  0.20507354  0.64846301  0.20778378     0.44250
H1433       H  0.05636855  0.60823644  0.16181020     0.44380
H1434       H  0.06200870  0.98308914  0.28882109     0.44740
O1435       O  0.16689803  0.85350064  0.16228025    -0.74130
O1436       O  0.16852619  0.81086115  0.15752017    -0.53040
C1437       C  0.17289639  0.83552558  0.14751478     0.79600
O1438       O  0.18330581  0.80571999  0.33083157    -0.58730
O1439       O  0.13584843  0.81509217  0.33768222    -0.51760
C1440       C  0.16153052  0.80512923  0.34794190     0.71610
O1441       O  0.21767169  0.77828005  0.25406022    -0.73290
O1442       O  0.19719852  0.76521753  0.21036356    -0.53850
C1443       C  0.21852686  0.76607733  0.23109719     0.77610
O1444       O  0.13560620  0.89265527  0.23324207    -0.58430
O1445       O  0.11985440  0.88044910  0.28255822    -0.51550
C1446       C  0.12741647  0.89773391  0.25932726     0.74210
Zr1447     Zr  0.14639718  0.85497042  0.21067605     2.54710
O1448       O  0.19365556  0.87699066  0.21167272    -0.79000
O1449       O  0.12263648  0.88863849  0.17125988    -0.92420
Zr1450     Zr  0.18331348  0.80282107  0.27692896     2.64680
O1451       O  0.22302157  0.83418179  0.27709618    -0.97370
O1452       O  0.21290000  0.76987811  0.31175736    -0.79430
O1453       O  0.17605604  0.81690099  0.22240311    -0.82790
O1454       O  0.15738031  0.84292830  0.26546874    -2.17500
O1455       O  0.04152061  0.84032939  0.22832009    -0.66180
O1456       O  0.06127512  0.85332540  0.27283140    -0.50750
C1457       C  0.04095391  0.85309045  0.25084287     0.72590
O1458       O  0.11626658  0.72684402  0.26029791    -0.59090
O1459       O  0.14134867  0.73727599  0.21532050    -0.51070
C1460       C  0.12963482  0.72122059  0.23707356     0.74390
O1461       O  0.08264989  0.77676699  0.33189138    -0.70480
O1462       O  0.08068848  0.82082977  0.32686458    -0.49160
C1463       C  0.07571187  0.79812745  0.34169721     0.75780
O1464       O  0.07031801  0.78064084  0.17224366    -0.65810
O1465       O  0.11709782  0.76990794  0.16369356    -0.53010
C1466       C  0.08914088  0.76917230  0.15817127     0.74160
Zr1467     Zr  0.07359413  0.81131154  0.21000693     2.77540
O1468       O  0.02655671  0.78887112  0.21556768    -0.96560
O1469       O  0.05585424  0.83911841  0.16140039    -0.77380
Zr1470     Zr  0.10607343  0.76386151  0.28410685     2.70070
O1471       O  0.05997401  0.73987347  0.28749687    -0.78630
O1472       O  0.12984977  0.73314572  0.32703164    -0.97710
Zr1473     Zr  0.14774488  0.78361213  0.20486345     2.21500
Zr1474     Zr  0.11005624  0.83434912  0.28500641     2.11130
O1475       O  0.07953308  0.80216339  0.26596604    -2.46400
O1476       O  0.10129648  0.77393025  0.22785978    -0.78420
O1477       O  0.09987326  0.84529692  0.22986331    -0.70620
O1478       O  0.15337149  0.77020288  0.26083582    -2.31580
O1479       O  0.11957892  0.82196595  0.18906312    -2.27780
O1480       O  0.13661320  0.79586868  0.29761968    -0.72380
H1481       H  0.16788223  0.85619721  0.27446348     0.79620
H1482       H  0.16436072  0.75418828  0.26599600     0.80710
H1483       H  0.06058354  0.80093762  0.27495352     0.82930
H1484       H  0.11669905  0.82644021  0.16646117     0.80540
H1485       H  0.20157409  0.75361667  0.31219658     0.43570
H1486       H  0.12496604  0.73933107  0.34638568     0.42540
H1487       H  0.04790693  0.74778999  0.26845248     0.42220
H1488       H  0.02057051  0.79048008  0.23671133     0.40160
H1489       H  0.06123593  0.85686387  0.16449461     0.43290
H1490       H  0.11469230  0.87953118  0.15441594     0.38070
H1491       H  0.20845637  0.86307471  0.21299673     0.44190
H1492       H  0.22147731  0.84094396  0.29685171     0.40600
H1493       H  0.01254792  0.80005430  0.20083856     0.45520
H1494       H  0.13897018  0.89933172  0.16189556     0.44250
H1495       H  0.24114286  0.82351604  0.28072089     0.44380
H1496       H  0.11846637  0.71692430  0.32741707     0.44740
O1497       O  0.22258969  0.62003040  0.08053953    -0.74130
O1498       O  0.26178620  0.64431559  0.09255262    -0.53040
C1499       C  0.24102358  0.62738691  0.10026575     0.79600
O1500       O  0.28040707  0.55913471  0.00096867    -0.58730
O1501       O  0.25134939  0.56939631  0.95528511    -0.51760
C1502       C  0.26534886  0.55308632  0.97721870     0.71610
O1503       O  0.32027645  0.60335298  0.07632722    -0.73290
O1504       O  0.31779772  0.64617032  0.08026612    -0.53850
C1505       C  0.32613851  0.62290041  0.09050335     0.77610
O1506       O  0.17770216  0.60583764  0.99895173    -0.58430
O1507       O  0.19248378  0.59807786  0.95235233    -0.51550
C1508       C  0.17343038  0.59699726  0.97363002     0.74210
Zr1509     Zr  0.21408662  0.62730189  0.02578315     2.54710
O1510       O  0.18649746  0.59242037  0.05588128    -0.79000
O1511       O  0.17438452  0.65664339  0.03125532    -0.92420
Zr1512     Zr  0.29407484  0.59614597  0.02540191     2.64680
O1513       O  0.28677465  0.55922934  0.06711041    -0.97370
O1514       O  0.34293200  0.58200305  0.01585914    -0.79430
O1515       O  0.26284428  0.62220797  0.04711725    -0.82790
O1516       O  0.24383120  0.59950886  0.00379770    -2.17500
O1517       O  0.19666365  0.67666943  0.93147070    -0.66180
O1518       O  0.21509999  0.64699557  0.90587300    -0.50750
C1519       C  0.20009672  0.66786229  0.90639725     0.72590
O1520       O  0.33759472  0.69027614  0.98068690    -0.59090
O1521       O  0.32908839  0.68792193  0.03263041    -0.51070
C1522       C  0.34319392  0.69618013  0.00788067     0.74390
O1523       O  0.31375133  0.63645907  0.91315737    -0.70480
O1524       O  0.27360953  0.61158452  0.90484233    -0.49160
C1525       C  0.29893588  0.62148123  0.89740401     0.75780
O1526       O  0.24670494  0.72137602  0.99667007    -0.65810
O1527       O  0.27006183  0.70790452  0.04477112    -0.53010
C1528       C  0.25823050  0.72555331  0.02328125     0.74160
Zr1529     Zr  0.23616410  0.68700079  0.96612778     2.77540
O1530       O  0.25402344  0.71760936  0.92216716    -0.96560
O1531       O  0.19477297  0.71657668  0.96268586    -0.77380
Zr1532     Zr  0.31294605  0.65494264  0.96119088     2.70070
O1533       O  0.33216742  0.68549410  0.91804790    -0.78630
O1534       O  0.36195086  0.63606233  0.97219768    -0.97710
Zr1535     Zr  0.28296390  0.66397675  0.04062948     2.21500
Zr1536     Zr  0.24281920  0.61674119  0.94856579     2.11130
O1537       O  0.26396391  0.65969557  0.93981267    -2.46400
O1538       O  0.28493949  0.68227672  0.98628084    -0.78420
O1539       O  0.21442449  0.64509361  0.97246317    -0.70620
O1540       O  0.31419382  0.63811567  0.01585095    -2.31580
O1541       O  0.23325168  0.66974755  0.02038521    -2.27780
O1542       O  0.29285634  0.61285496  0.97038960    -0.72380
H1543       H  0.23440842  0.58276426  0.00751223     0.79620
H1544       H  0.33420029  0.63798965  0.02468945     0.80710
H1545       H  0.26416452  0.66678075  0.91763937     0.82930
H1546       H  0.22237604  0.68065331  0.03138688     0.80540
H1547       H  0.35652893  0.59080034  0.02927588     0.43570
H1548       H  0.36334117  0.62415890  0.95700769     0.42540
H1549       H  0.31593002  0.69800705  0.91098806     0.42220
H1550       H  0.24202134  0.71415698  0.90352004     0.40160
H1551       H  0.18246490  0.70861440  0.97990010     0.43290
H1552       H  0.17301417  0.65506131  0.05424289     0.38070
H1553       H  0.19914947  0.57689861  0.05772146     0.44190
H1554       H  0.26655322  0.55317517  0.06267064     0.40600
H1555       H  0.24710671  0.73471990  0.92539959     0.45520
H1556       H  0.15633453  0.64815877  0.02412513     0.44250
H1557       H  0.29973744  0.54546374  0.06263013     0.44380
H1558       H  0.37543485  0.65048725  0.96482191     0.44740
O1559       O  0.31925341  0.87029465  0.06775182    -0.74130
O1560       O  0.27142915  0.86420985  0.07692090    -0.53040
C1561       C  0.29828047  0.86979583  0.08598230     0.79600
O1562       O  0.24478441  0.97232211  0.98650535    -0.58730
O1563       O  0.26902233  0.97326175  0.94137665    -0.51760
C1564       C  0.25605040  0.98421835  0.96114398     0.71610
O1565       O  0.21281854  0.90161764  0.06305727    -0.73290
O1566       O  0.21558027  0.85783638  0.06532650    -0.53850
C1567       C  0.20718515  0.87746176  0.07571966     0.77610
O1568       O  0.34972802  0.92793192  0.98922243    -0.58430
O1569       O  0.32861415  0.94887234  0.94254614    -0.51550
C1570       C  0.34968382  0.94500851  0.96392698     0.74210
Zr1571     Zr  0.31709954  0.89505927  0.01544589     2.54710
O1572       O  0.33730547  0.92242513  0.05135809    -0.79000
O1573       O  0.36267726  0.87091511  0.01680731    -0.92420
Zr1574     Zr  0.23741827  0.92806080  0.01550939     2.64680
O1575       O  0.25535698  0.95012954  0.05782317    -0.97370
O1576       O  0.18948160  0.94879951  0.01280328    -0.79430
O1577       O  0.26961314  0.89404160  0.03534950    -0.82790
O1578       O  0.28542708  0.93007394  0.99414246    -2.17500
O1579       O  0.30593287  0.86996007  0.90541589    -0.66180
O1580       O  0.30442023  0.91407410  0.89420437    -0.50750
C1581       C  0.31076313  0.89150934  0.88778098     0.72590
O1582       O  0.17644222  0.85968764  0.96607716    -0.59090
O1583       O  0.19621083  0.83825776  0.01340321    -0.51070
C1584       C  0.17569581  0.84228152  0.99084648     0.74390
O1585       O  0.20413400  0.93344593  0.90486726    -0.70480
O1586       O  0.25012650  0.94898240  0.89496471    -0.49160
C1587       C  0.22219724  0.94931569  0.88943660     0.75780
O1588       O  0.26695862  0.81237735  0.97620853    -0.65810
O1589       O  0.25608486  0.81032303  0.02706890    -0.53010
C1590       C  0.25985108  0.79986775  0.00290588     0.74160
Zr1591     Zr  0.28459551  0.85487070  0.95351646     2.77540
O1592       O  0.27112956  0.82691651  0.91561409    -0.96560
O1593       O  0.33235263  0.83361092  0.96425106    -0.77380
Zr1594     Zr  0.20889654  0.89397584  0.94601872     2.70070
O1595       O  0.19431469  0.87595793  0.89938814    -0.78630
O1596       O  0.16035989  0.91175823  0.94996116    -0.97710
Zr1597     Zr  0.24567275  0.85606586  0.02527826     2.21500
Zr1598     Zr  0.28091855  0.92852248  0.93896882     2.11130
O1599       O  0.25589258  0.89123273  0.92696348    -2.46400
O1600       O  0.23709492  0.85686663  0.97056291    -0.78420
O1601       O  0.31114624  0.89259773  0.96168985    -0.70620
O1602       O  0.21391797  0.89140805  0.00148751    -2.31580
O1603       O  0.29394012  0.85531710  0.00755869    -2.27780
O1604       O  0.23360656  0.92977383  0.95996364    -0.72380
H1605       H  0.29501812  0.94595201  0.99746349     0.79620
H1606       H  0.19466431  0.88958602  0.00976736     0.80710
H1607       H  0.25368947  0.89153746  0.90457818     0.82930
H1608       H  0.30496264  0.84031884  0.01825734     0.80540
H1609       H  0.17526249  0.93430478  0.01593756     0.43570
H1610       H  0.16407452  0.92992715  0.95247985     0.42540
H1611       H  0.20418204  0.85884785  0.90292284     0.42220
H1612       H  0.26249470  0.83858545  0.89677071     0.40160
H1613       H  0.34677231  0.84765451  0.95855476     0.43290
H1614       H  0.35830609  0.85322078  0.02790800     0.38070
H1615       H  0.31985778  0.93016131  0.05866050     0.44190
H1616       H  0.27187397  0.96095037  0.04912678     0.40600
H1617       H  0.28999204  0.82097526  0.90915480     0.45520
H1618       H  0.37618544  0.87822966  0.03176078     0.44250
H1619       H  0.23965030  0.96271782  0.05921668     0.44380
H1620       H  0.15067849  0.91311571  0.92861877     0.44740
O1621       O  0.46903328  0.49819145  0.06483151    -0.74130
O1622       O  0.00709718  0.52342233  0.07695777    -0.53040
C1623       C  0.48639357  0.50664848  0.08475205     0.79600
O1624       O  0.03471109  0.93551224  0.98543613    -0.58730
O1625       O  0.00806897  0.94711246  0.93829218    -0.51760
C1626       C  0.02191635  0.93052572  0.95956794     0.71610
O1627       O  0.06917979  0.98199549  0.06535091    -0.73290
O1628       O  0.06443539  0.52706369  0.06896336    -0.53850
C1629       C  0.07452174  0.50454396  0.08056141     0.77610
O1630       O  0.42872264  0.98145968  0.97872426    -0.58430
O1631       O  0.44897668  0.96881610  0.93717522    -0.51550
C1632       C  0.42757362  0.97000466  0.95482646     0.74210
Zr1633     Zr  0.46298244  0.50356996  0.00974402     2.54710
O1634       O  0.43337621  0.96970537  0.03905133    -0.79000
O1635       O  0.42246154  0.53271476  0.01309728    -0.92420
Zr1636     Zr  0.04388744  0.97190779  0.01406178     2.64680
O1637       O  0.03044684  0.93634673  0.05499484    -0.97370
O1638       O  0.09318055  0.95510353  0.01164152    -0.79430
O1639       O  0.01117348  0.50055288  0.03375434    -0.82790
O1640       O  0.99468020  0.97482923  0.98917891    -2.17500
O1641       O  0.44693573  0.54498289  0.92136031    -0.66180
O1642       O  0.46725312  0.51826672  0.89374604    -0.50750
C1643       C  0.45063746  0.53797355  0.89533647     0.72590
O1644       O  0.08796824  0.56568451  0.96347447    -0.59090
O1645       O  0.08066092  0.56357424  0.01539040    -0.51070
C1646       C  0.09572878  0.57028452  0.99064451     0.74390
O1647       O  0.06753113  0.50804423  0.90327202    -0.70480
O1648       O  0.02682629  0.98628041  0.89164397    -0.49160
C1649       C  0.05330577  0.49250380  0.88796000     0.75780
O1650       O  0.49598919  0.59735267  0.97649652    -0.65810
O1651       O  0.01896519  0.58708433  0.02492555    -0.53010
C1652       C  0.00766090  0.60327640  0.00142415     0.74160
Zr1653     Zr  0.48795314  0.56132260  0.94860447     2.77540
O1654       O  0.00477695  0.58802604  0.90105023    -0.96560
O1655       O  0.44923980  0.59393245  0.93932622    -0.77380
Zr1656     Zr  0.06528119  0.52819813  0.94956288     2.70070
O1657       O  0.08722471  0.55624947  0.90603865    -0.78630
O1658       O  0.11372280  0.50897551  0.96427890    -0.97710
Zr1659     Zr  0.03192649  0.54217760  0.02582559     2.21500
Zr1660     Zr  0.99716469  0.48964023  0.93695645     2.11130
O1661       O  0.01748688  0.53256750  0.92537940    -2.46400
O1662       O  0.03600166  0.55722856  0.97101846    -0.78420
O1663       O  0.46662640  0.51924760  0.95668544    -0.70620
O1664       O  0.06462876  0.51484296  0.00498059    -2.31580
O1665       O  0.48278831  0.54635712  0.00295303    -2.27780
O1666       O  0.04484050  0.98773956  0.95881215    -0.72380
H1667       H  0.48536609  0.95840702  0.99816584     0.79620
H1668       H  0.08433378  0.51509011  0.01453962     0.80710
H1669       H  0.01835472  0.53843446  0.90299867     0.82930
H1670       H  0.47105451  0.55783846  0.01229389     0.80540
H1671       H  0.10647492  0.96756211  0.02014043     0.43570
H1672       H  0.11427013  0.99567255  0.95127214     0.42540
H1673       H  0.07096602  0.56778084  0.89587181     0.42220
H1674       H  0.99242412  0.58293813  0.88355222     0.40160
H1675       H  0.43517273  0.58779995  0.95557791     0.43290
H1676       H  0.42285850  0.53417512  0.03559341     0.38070
H1677       H  0.44630266  0.95424059  0.04280142     0.44190
H1678       H  0.01087088  0.93070359  0.04753987     0.40600
H1679       H  0.50026550  0.60616986  0.90340766     0.45520
H1680       H  0.40456147  0.52246998  0.00969838     0.44250
H1681       H  0.04387877  0.92204021  0.05314529     0.44380
H1682       H  0.12764588  0.52258664  0.95549644     0.44740
O1683       O  0.06536882  0.73889334  0.07651243    -0.74130
O1684       O  0.01829683  0.73162070  0.08800130    -0.53040
C1685       C  0.04509683  0.73710500  0.09589590     0.79600
O1686       O  0.49587017  0.84595815  0.98748473    -0.58730
O1687       O  0.02365418  0.84635674  0.95479319    -0.51760
C1688       C  0.50775552  0.85662574  0.96191318     0.71610
O1689       O  0.46752224  0.77994585  0.07083626    -0.73290
O1690       O  0.45538504  0.73912140  0.06487244    -0.53850
C1691       C  0.45689348  0.75695404  0.08087101     0.77610
O1692       O  0.09767924  0.79765247  0.00015164    -0.58430
O1693       O  0.07778009  0.81807934  0.95254022    -0.51550
C1694       C  0.09877187  0.81398864  0.97449887     0.74210
Zr1695     Zr  0.06386797  0.76680318  0.02563981     2.54710
O1696       O  0.08011531  0.79457014  0.06278240    -0.79000
O1697       O  0.11132948  0.74522621  0.02906599    -0.92420
Zr1698     Zr  0.48558337  0.80300293  0.01883963     2.64680
O1699       O  0.50002911  0.83079719  0.05654755    -0.97370
O1700       O  0.43623906  0.82143558  0.01286979    -0.79430
O1701       O  0.01714748  0.76666785  0.04629920    -0.82790
O1702       O  0.03298821  0.80157456  0.00224393    -2.17500
O1703       O  0.05093825  0.73970730  0.91404731    -0.66180
O1704       O  0.04833437  0.78393399  0.90138387    -0.50750
C1705       C  0.05441856  0.76099188  0.89534833     0.72590
O1706       O  0.42216414  0.73230232  0.98733769    -0.59090
O1707       O  0.44507423  0.70944325  0.03211031    -0.51070
C1708       C  0.42243357  0.71554270  0.01310172     0.74390
O1709       O  0.44867492  0.79845000  0.91264739    -0.70480
O1710       O  0.99059212  0.82320939  0.90630170    -0.49160
C1711       C  0.46346893  0.81721067  0.89757044     0.75780
O1712       O  0.02372642  0.68262080  0.99337949    -0.65810
O1713       O  0.50470218  0.68386609  0.04258447    -0.53010
C1714       C  0.01606804  0.67124324  0.02059173     0.74160
Zr1715     Zr  0.03224864  0.72593676  0.96376742     2.77540
O1716       O  0.01204898  0.69784751  0.92865772    -0.96560
O1717       O  0.08124624  0.70720320  0.96683238    -0.77380
Zr1718     Zr  0.45571150  0.76132111  0.95580848     2.70070
O1719       O  0.44391161  0.73594824  0.91485035    -0.78630
O1720       O  0.40490719  0.77633062  0.95168877    -0.97710
Zr1721     Zr  0.49282271  0.72962833  0.03529670     2.21500
Zr1722     Zr  0.02729915  0.80093602  0.94672954     2.11130
O1723       O  0.00278660  0.76201530  0.93760396    -2.46400
O1724       O  0.48434420  0.72524773  0.98191256    -0.78420
O1725       O  0.05706161  0.76468682  0.97146258    -0.70620
O1726       O  0.46206327  0.76499172  0.00905078    -2.31580
O1727       O  0.04218713  0.72726365  0.01733896    -2.27780
O1728       O  0.48033569  0.79935268  0.96481887    -0.72380
H1729       H  0.04371028  0.81672883  0.00618542     0.79620
H1730       H  0.44261295  0.76527692  0.01661058     0.80710
H1731       H  0.99973676  0.76176264  0.91540061     0.82930
H1732       H  0.05379339  0.71266054  0.02812615     0.80540
H1733       H  0.42496312  0.80985909  0.02849392     0.43570
H1734       H  0.40619400  0.79480491  0.95380111     0.42540
H1735       H  0.44664344  0.71771683  0.92555376     0.42220
H1736       H  0.00296185  0.70974468  0.91027011     0.40160
H1737       H  0.09459800  0.72094078  0.97231038     0.43290
H1738       H  0.10707519  0.72659361  0.03593420     0.38070
H1739       H  0.06186443  0.79901495  0.07192031     0.44190
H1740       H  0.01428608  0.83229940  0.06292149     0.40600
H1741       H  0.02940229  0.69052908  0.92065556     0.45520
H1742       H  0.12211858  0.75047648  0.04747251     0.44250
H1743       H  0.48608767  0.84554674  0.05164444     0.44380
H1744       H  0.39795327  0.77657572  0.92952002     0.44740
O1745       O  0.33771459  0.57304110  0.81872284    -0.74130
O1746       O  0.34415006  0.61658602  0.81569158    -0.53040
C1747       C  0.33332497  0.59480507  0.82841163     0.79600
O1748       O  0.47800238  0.56255133  0.74273657    -0.58730
O1749       O  0.45386186  0.54493355  0.70417512    -0.51760
C1750       C  0.47687819  0.54812824  0.72153366     0.71610
O1751       O  0.44643425  0.59978933  0.81949337    -0.73290
O1752       O  0.39885386  0.60816624  0.82605240    -0.53850
C1753       C  0.42437255  0.59813682  0.83640806     0.77610
O1754       O  0.36958761  0.51566360  0.76022707    -0.58430
O1755       O  0.39873962  0.52121844  0.71832842    -0.51550
C1756       C  0.38449874  0.50735628  0.74004539     0.74210
Zr1757     Zr  0.36353336  0.55670103  0.77572909     2.54710
O1758       O  0.37998041  0.52769583  0.82393761    -0.79000
O1759       O  0.31460237  0.53774125  0.77304236    -0.92420
Zr1760     Zr  0.44575363  0.58862542  0.76831612     2.64680
O1761       O  0.47606160  0.55772048  0.80543744    -0.97370
O1762       O  0.48672722  0.61896340  0.76255281    -0.79430
O1763       O  0.39797132  0.58668429  0.78773083    -0.82790
O1764       O  0.41222738  0.55682458  0.75557178    -2.17500
O1765       O  0.33311340  0.56973224  0.66323425    -0.66180
O1766       O  0.37669062  0.54996854  0.65929692    -0.50750
C1767       C  0.34902724  0.55329879  0.65226616     0.72590
O1768       O  0.40586409  0.67989927  0.71556381    -0.59090
O1769       O  0.38943777  0.67321556  0.76499645    -0.51070
C1770       C  0.39866143  0.68792746  0.74022657     0.74390
O1771       O  0.44837302  0.62774090  0.66592156    -0.70480
O1772       O  0.44169226  0.58600981  0.65907099    -0.49160
C1773       C  0.45466872  0.60840527  0.65367353     0.75780
O1774       O  0.30692682  0.63454125  0.71668866    -0.65810
O1775       O  0.32840928  0.64871698  0.75982721    -0.53010
C1776       C  0.30743907  0.64810303  0.73875061     0.74160
Zr1777     Zr  0.33713296  0.60335677  0.69790790     2.77540
O1778       O  0.32452502  0.63224513  0.64832654    -0.96560
O1779       O  0.28685904  0.58718471  0.69920642    -0.77380
Zr1780     Zr  0.41299413  0.63961745  0.69787499     2.70070
O1781       O  0.39230076  0.66427735  0.64842610    -0.78630
O1782       O  0.45459373  0.66942865  0.69512961    -0.97710
Zr1783     Zr  0.37524251  0.62720983  0.77278378     2.21500
Zr1784     Zr  0.40719433  0.56654932  0.69920290     2.11130
O1785       O  0.38420554  0.60713597  0.67757183    -2.46400
O1786       O  0.36609583  0.63613300  0.71699609    -0.78420
O1787       O  0.35939830  0.56363106  0.71964402    -0.70620
O1788       O  0.42307733  0.63025238  0.75308969    -2.31580
O1789       O  0.34197947  0.59668104  0.75407655    -2.27780
O1790       O  0.43767699  0.59953932  0.71423465    -0.72380
H1791       H  0.42168112  0.54027184  0.76303516     0.79620
H1792       H  0.43488159  0.64349704  0.76069102     0.80710
H1793       H  0.38307129  0.61008515  0.65485934     0.82930
H1794       H  0.32280981  0.59737159  0.76221782     0.80540
H1795       H  0.48945270  0.62469794  0.78310327     0.43570
H1796       H  0.47225316  0.65840141  0.70137770     0.42540
H1797       H  0.37348932  0.67116590  0.65380423     0.42220
H1798       H  0.33044519  0.62272922  0.63192959     0.40160
H1799       H  0.28864840  0.56923477  0.71110474     0.43290
H1800       H  0.30091488  0.55215476  0.77369002     0.38070
H1801       H  0.38146830  0.53880288  0.84018084     0.44190
H1802       H  0.47203094  0.54053563  0.79965396     0.40600
H1803       H  0.30275609  0.63217815  0.64636875     0.45520
H1804       H  0.31320411  0.52614121  0.79362200     0.44250
H1805       H  0.49667301  0.56171034  0.80030040     0.44380
H1806       H  0.45614575  0.67642002  0.67248868     0.44740
O1807       O  0.34932632  0.83786649  0.81769272    -0.74130
O1808       O  0.35636181  0.88169553  0.80828584    -0.53040
C1809       C  0.34578415  0.86114618  0.82381879     0.79600
O1810       O  0.48709585  0.81713204  0.74708102    -0.58730
O1811       O  0.46352227  0.79682666  0.71032601    -0.51760
C1812       C  0.48628506  0.80176252  0.72708867     0.71610
O1813       O  0.46012278  0.87231227  0.80654868    -0.73290
O1814       O  0.41390473  0.87563087  0.81959813    -0.53850
C1815       C  0.44163728  0.87133503  0.82733236     0.77610
O1816       O  0.37765412  0.77035489  0.76937441    -0.58430
O1817       O  0.40455712  0.77071454  0.72631267    -0.51550
C1818       C  0.39037634  0.75903199  0.74986057     0.74210
Zr1819     Zr  0.37225001  0.81427446  0.77879851     2.54710
O1820       O  0.38543214  0.78783751  0.82982874    -0.79000
O1821       O  0.32242424  0.79697818  0.77886395    -0.92420
Zr1822     Zr  0.45406844  0.84276575  0.77059061     2.64680
O1823       O  0.46659694  0.80961894  0.81644543    -0.97370
O1824       O  0.50411722  0.85907810  0.77455375    -0.79430
O1825       O  0.40701278  0.84462128  0.79104930    -0.82790
O1826       O  0.42025145  0.81071781  0.75938617    -2.17500
O1827       O  0.34280633  0.82095292  0.66530103    -0.66180
O1828       O  0.38416491  0.79669397  0.66594572    -0.50750
C1829       C  0.35718598  0.80212402  0.65701853     0.72590
O1830       O  0.41961065  0.93218184  0.70376647    -0.59090
O1831       O  0.40176907  0.92897107  0.75235173    -0.51070
C1832       C  0.41076071  0.94184886  0.72662042     0.74390
O1833       O  0.46525870  0.86676968  0.67374789    -0.70480
O1834       O  0.44044219  0.83577655  0.65434150    -0.49160
C1835       C  0.45808853  0.85555022  0.65089462     0.75780
O1836       O  0.31571100  0.88901970  0.71284230    -0.65810
O1837       O  0.33853453  0.90628817  0.75295938    -0.53010
C1838       C  0.31647743  0.90417769  0.73332914     0.74160
Zr1839     Zr  0.34776225  0.85726645  0.69623142     2.77540
O1840       O  0.34070887  0.88584142  0.64540734    -0.96560
O1841       O  0.29637373  0.84451028  0.69201373    -0.77380
Zr1842     Zr  0.42714057  0.88938054  0.69269818     2.70070
O1843       O  0.41257466  0.90779003  0.63830805    -0.78630
O1844       O  0.46867108  0.91903281  0.68502368    -0.97710
Zr1845     Zr  0.38652027  0.88490713  0.76624372     2.21500
Zr1846     Zr  0.41552155  0.81588334  0.70300384     2.11130
O1847       O  0.39500193  0.85673441  0.67703135    -2.46400
O1848       O  0.37937031  0.89046737  0.71044877    -0.78420
O1849       O  0.36780426  0.81760972  0.72284776    -0.70620
O1850       O  0.43454507  0.88442825  0.74786094    -2.31580
O1851       O  0.35222597  0.85352703  0.75204906    -2.27780
O1852       O  0.44816211  0.84875451  0.71578004    -0.72380
H1853       H  0.42888924  0.79410784  0.76843837     0.79620
H1854       H  0.44686102  0.89816984  0.75353721     0.80710
H1855       H  0.39319651  0.85809131  0.65445405     0.82930
H1856       H  0.33314380  0.85548552  0.75984643     0.80540
H1857       H  0.50455527  0.87437831  0.75745709     0.43570
H1858       H  0.48587450  0.90898338  0.69567444     0.42540
H1859       H  0.39882094  0.92196409  0.63977923     0.42220
H1860       H  0.33942330  0.87403560  0.62992299     0.40160
H1861       H  0.29390037  0.83136566  0.71116052     0.43290
H1862       H  0.30950105  0.81227119  0.77738144     0.38070
H1863       H  0.40714655  0.78657959  0.83060444     0.44190
H1864       H  0.47215701  0.79423010  0.80780314     0.40600
H1865       H  0.32050284  0.89270700  0.64508857     0.45520
H1866       H  0.32071220  0.78736873  0.80054263     0.44250
H1867       H  0.48534515  0.81563626  0.82549866     0.44380
H1868       H  0.47197915  0.92129933  0.66233097     0.44740
O1869       O  0.09072438  0.70641669  0.82277120    -0.74130
O1870       O  0.09836967  0.75001800  0.81616654    -0.53040
C1871       C  0.08710619  0.72937058  0.83031476     0.79600
O1872       O  0.23084781  0.68896818  0.74960013    -0.58730
O1873       O  0.20675028  0.67023620  0.71193594    -0.51760
C1874       C  0.22968291  0.67427469  0.72882150     0.71610
O1875       O  0.19927921  0.72540687  0.82659007    -0.73290
O1876       O  0.15149912  0.73480722  0.83055123    -0.53850
C1877       C  0.17682364  0.72546972  0.84267502     0.77610
O1878       O  0.11980372  0.64254970  0.76793626    -0.58430
O1879       O  0.14864034  0.64648332  0.72579738    -0.51550
C1880       C  0.13356516  0.63328217  0.74756590     0.74210
Zr1881     Zr  0.11486938  0.68445404  0.78186912     2.54710
O1882       O  0.12833321  0.65607318  0.83149913    -0.79000
O1883       O  0.06515873  0.66699936  0.78028337    -0.92420
Zr1884     Zr  0.19842241  0.71349853  0.77580328     2.64680
O1885       O  0.22329970  0.67871826  0.81284021    -0.97370
O1886       O  0.24228374  0.74055685  0.77483715    -0.79430
O1887       O  0.15062698  0.71263622  0.79482531    -0.82790
O1888       O  0.16380846  0.68282070  0.76227304    -2.17500
O1889       O  0.08755053  0.69341459  0.66954710    -0.66180
O1890       O  0.13085126  0.67304608  0.66665750    -0.50750
C1891       C  0.10312621  0.67603180  0.65967605     0.72590
O1892       O  0.15622037  0.80551323  0.72198104    -0.59090
O1893       O  0.14622509  0.79650803  0.77344506    -0.51070
C1894       C  0.15074095  0.81228650  0.74821171     0.74390
O1895       O  0.20437524  0.75417281  0.67192485    -0.70480
O1896       O  0.19298940  0.71336561  0.66343669    -0.49160
C1897       C  0.20714025  0.73537634  0.65756705     0.75780
O1898       O  0.06302734  0.76213846  0.71816710    -0.65810
O1899       O  0.08444435  0.77681316  0.76091820    -0.53010
C1900       C  0.06369354  0.77629029  0.73956804     0.74160
Zr1901     Zr  0.09216699  0.72965831  0.70111399     2.77540
O1902       O  0.08333285  0.75746925  0.65000198    -0.96560
O1903       O  0.04058496  0.71717835  0.69891785    -0.77380
Zr1904     Zr  0.16902042  0.76559613  0.70402633     2.70070
O1905       O  0.15305690  0.79180863  0.65366068    -0.78630
O1906       O  0.21190236  0.79351434  0.70662788    -0.97710
Zr1907     Zr  0.12987089  0.75316796  0.77610309     2.21500
Zr1908     Zr  0.16050557  0.69181136  0.70573426     2.11130
O1909       O  0.13991113  0.73311925  0.68300086    -2.46400
O1910       O  0.12134535  0.76235030  0.72048947    -0.78420
O1911       O  0.11252013  0.69007248  0.72553211    -0.70620
O1912       O  0.17827493  0.75584807  0.75901754    -2.31580
O1913       O  0.09501708  0.72407435  0.75740734    -2.27780
O1914       O  0.19159307  0.72437100  0.72137017    -0.72380
H1915       H  0.17241888  0.66596218  0.77004409     0.79620
H1916       H  0.19015316  0.76880971  0.76711795     0.80710
H1917       H  0.13942943  0.73594815  0.66030840     0.82930
H1918       H  0.07573958  0.72577293  0.76490142     0.80540
H1919       H  0.24009451  0.75116675  0.79128863     0.43570
H1920       H  0.22872149  0.78153757  0.71319886     0.42540
H1921       H  0.13320745  0.79799027  0.65690164     0.42220
H1922       H  0.08496249  0.74577540  0.63460809     0.40160
H1923       H  0.03933929  0.70199254  0.71605370     0.43290
H1924       H  0.05214583  0.68201578  0.78023355     0.38070
H1925       H  0.14868841  0.65053865  0.82925126     0.44190
H1926       H  0.21904375  0.66262083  0.80445988     0.40600
H1927       H  0.06213933  0.76179071  0.64886232     0.45520
H1928       H  0.06348313  0.65614056  0.80129688     0.44250
H1929       H  0.24458511  0.68181442  0.81047811     0.44380
H1930       H  0.21504811  0.80139416  0.68454339     0.44740
O1931       O  0.09278352  0.94547452  0.80938496    -0.74130
O1932       O  0.09302061  0.98956077  0.80348390    -0.53040
C1933       C  0.08556895  0.96715603  0.81772000     0.79600
O1934       O  0.23561847  0.94473066  0.74324446    -0.58730
O1935       O  0.21521178  0.92879890  0.70120132    -0.51760
C1936       C  0.23681430  0.93151434  0.72095658     0.71610
O1937       O  0.19415622  0.99575679  0.80375837    -0.73290
O1938       O  0.14780425  0.49726930  0.81747367    -0.53850
C1939       C  0.17507307  0.49196070  0.82480817     0.77610
O1940       O  0.13329151  0.89223207  0.74708055    -0.58430
O1941       O  0.16026550  0.90055039  0.70343110    -0.51550
C1942       C  0.14749458  0.88534896  0.72496292     0.74210
Zr1943     Zr  0.12032069  0.93178819  0.76607631     2.54710
O1944       O  0.13711013  0.90215194  0.81362456    -0.79000
O1945       O  0.07361477  0.90920988  0.76225730    -0.92420
Zr1946     Zr  0.19792533  0.96860026  0.76458996     2.64680
O1947       O  0.21163867  0.93559904  0.81022994    -0.97370
O1948       O  0.24525348  0.98979745  0.77008508    -0.79430
O1949       O  0.14962491  0.96436464  0.78276668    -0.82790
O1950       O  0.16918328  0.93547275  0.74749756    -2.17500
O1951       O  0.09006452  0.94372276  0.65830972    -0.66180
O1952       O  0.13497429  0.92655274  0.65332353    -0.50750
C1953       C  0.10682489  0.92768958  0.64782291     0.72590
O1954       O  0.15514002  0.55828727  0.70807455    -0.59090
O1955       O  0.13523092  0.55005866  0.75583878    -0.51070
C1956       C  0.14536294  0.56534372  0.73216505     0.74390
O1957       O  0.20166687  0.51020841  0.65776451    -0.70480
O1958       O  0.19632227  0.96829329  0.64880164    -0.49160
C1959       C  0.20756463  0.99138269  0.64304391     0.75780
O1960       O  0.05660085  0.50844779  0.70886975    -0.65810
O1961       O  0.07688545  0.52378379  0.75159146    -0.53010
C1962       C  0.05590294  0.52205164  0.73089155     0.74160
Zr1963     Zr  0.09137430  0.97981685  0.68883062     2.77540
O1964       O  0.08165025  0.50924068  0.63946923    -0.96560
O1965       O  0.04128943  0.96362463  0.68463463    -0.77380
Zr1966     Zr  0.16620472  0.51862401  0.69165940     2.70070
O1967       O  0.14755096  0.54422909  0.64190325    -0.78630
O1968       O  0.20791875  0.54781229  0.69453441    -0.97710
Zr1969     Zr  0.12456067  0.50383676  0.76397137     2.21500
Zr1970     Zr  0.16561522  0.94642547  0.69116083     2.11130
O1971       O  0.13926627  0.98535024  0.66947493    -2.46400
O1972       O  0.11804387  0.51439831  0.70835169    -0.78420
O1973       O  0.11725290  0.94143728  0.71025910    -0.70620
O1974       O  0.17326041  0.50859261  0.74675893    -2.31580
O1975       O  0.09534729  0.97085664  0.74468221    -2.27780
O1976       O  0.19312738  0.97987071  0.70935832    -0.72380
H1977       H  0.17969011  0.91934483  0.75430510     0.79620
H1978       H  0.18362496  0.52277852  0.75399321     0.80710
H1979       H  0.13856829  0.48924025  0.64753372     0.82930
H1980       H  0.07586484  0.97027867  0.75236685     0.80540
H1981       H  0.24382306  0.50545171  0.75795930     0.43570
H1982       H  0.22530386  0.53636580  0.70028604     0.42540
H1983       H  0.12783517  0.55006010  0.64615541     0.42220
H1984       H  0.08392353  0.49817947  0.62349618     0.40160
H1985       H  0.03980852  0.95013212  0.70365284     0.43290
H1986       H  0.05844944  0.92250308  0.76273538     0.38070
H1987       H  0.15231946  0.91201402  0.82384076     0.44190
H1988       H  0.21044326  0.91895583  0.80248205     0.40600
H1989       H  0.06026073  0.51270379  0.63855777     0.45520
H1990       H  0.07276643  0.89734181  0.78272198     0.44250
H1991       H  0.23296214  0.93827694  0.81437765     0.44380
H1992       H  0.21045240  0.55646214  0.67258955     0.44740
O1993       O  0.23972833  0.52770602  0.39949969    -0.74130
O1994       O  0.21867570  0.98869483  0.41189434    -0.53040
C1995       C  0.21802632  0.51262491  0.39774187     0.79600
O1996       O  0.36327146  0.53519938  0.47651329    -0.58730
O1997       O  0.34377541  0.55403738  0.51426858    -0.51760
C1998       C  0.36465202  0.55006615  0.49708331     0.71610
O1999       O  0.32551244  0.97813354  0.41638751    -0.73290
O2000       O  0.28325753  0.95496998  0.41344731    -0.53850
C2001       C  0.30932175  0.96131744  0.40476055     0.77610
O2002       O  0.26228962  0.58708345  0.45925969    -0.58430
O2003       O  0.28276176  0.58127113  0.50922185    -0.51550
C2004       C  0.27221120  0.59546467  0.48398168     0.74210
Zr2005     Zr  0.25027706  0.54479195  0.44617348     2.54710
O2006       O  0.25047078  0.57937356  0.40042731    -0.79000
O2007       O  0.19981518  0.55713065  0.45288046    -0.92420
Zr2008     Zr  0.32734931  0.50835965  0.45464077     2.64680
O2009       O  0.33944496  0.53813768  0.40726445    -0.97370
O2010       O  0.37396040  0.98684953  0.45670235    -0.79430
O2011       O  0.27890645  0.51083317  0.43194387    -0.82790
O2012       O  0.29950124  0.54356049  0.46627924    -2.17500
O2013       O  0.22331441  0.52598503  0.55646789    -0.66180
O2014       O  0.26974257  0.53753887  0.56967714    -0.50750
C2015       C  0.24342287  0.53061027  0.57647546     0.72590
O2016       O  0.29234322  0.92321993  0.52652753    -0.59090
O2017       O  0.26631039  0.92545125  0.47901771    -0.51070
C2018       C  0.27902430  0.91303582  0.50474696     0.74390
O2019       O  0.32703233  0.98804067  0.58136813    -0.70480
O2020       O  0.32320153  0.53137203  0.56869343    -0.49160
C2021       C  0.33046885  0.01160774  0.58763066     0.75780
O2022       O  0.19150273  0.96679455  0.50085673    -0.65810
O2023       O  0.21049254  0.94774534  0.46327475    -0.53010
C2024       C  0.19027317  0.95091524  0.48155936     0.74160
Zr2025     Zr  0.22495307  0.99659519  0.52076135     2.77540
O2026       O  0.20831996  0.96260664  0.56192588    -0.96560
O2027       O  0.17660397  0.51555908  0.51376986    -0.77380
Zr2028     Zr  0.30587256  0.96605397  0.53563094     2.70070
O2029       O  0.29954539  0.93622394  0.58472780    -0.78630
O2030       O  0.35569261  0.94990317  0.53500560    -0.97710
Zr2031     Zr  0.25647146  0.97020149  0.45448658     2.21500
Zr2032     Zr  0.29488675  0.53650593  0.52154884     2.11130
O2033       O  0.27299989  0.99661631  0.54538051    -2.46400
O2034       O  0.25705647  0.96464536  0.51086493    -0.78420
O2035       O  0.24572648  0.53790894  0.50069472    -0.70620
O2036       O  0.30551492  0.96909080  0.47924420    -2.31580
O2037       O  0.22760674  0.50446762  0.46579228    -2.27780
O2038       O  0.32649298  0.00442443  0.51039483    -0.72380
H2039       H  0.30919127  0.55980859  0.45906247     0.79620
H2040       H  0.31639754  0.95465157  0.47462497     0.80710
H2041       H  0.27235430  0.99339225  0.56793839     0.82930
H2042       H  0.20749632  0.50407199  0.45748653     0.80540
H2043       H  0.37187329  0.97018650  0.47130467     0.43570
H2044       H  0.36782915  0.96027697  0.54793367     0.42540
H2045       H  0.27955147  0.93995091  0.59050602     0.42220
H2046       H  0.22620204  0.95537081  0.57442673     0.40160
H2047       H  0.17983846  0.53452887  0.50972097     0.43290
H2048       H  0.18658091  0.54549475  0.44290903     0.38070
H2049       H  0.27081727  0.57943194  0.39359791     0.44190
H2050       H  0.33954493  0.55550940  0.41320215     0.40600
H2051       H  0.19705971  0.97139284  0.57578340     0.45520
H2052       H  0.19690862  0.57457264  0.43986469     0.44250
H2053       H  0.36038409  0.53453930  0.40480499     0.44380
H2054       H  0.35546505  0.93230166  0.54792779     0.44740
O2055       O  0.21462434  0.78146571  0.41857450    -0.74130
O2056       O  0.21890158  0.73840291  0.41728737    -0.53040
C2057       C  0.20663686  0.76120620  0.40820011     0.79600
O2058       O  0.36160792  0.78478946  0.48190350    -0.58730
O2059       O  0.34340470  0.80340270  0.52060036    -0.51760
C2060       C  0.36343621  0.79993160  0.50204556     0.71610
O2061       O  0.32723667  0.72522989  0.42608872    -0.73290
O2062       O  0.28425387  0.70331057  0.42179218    -0.53850
C2063       C  0.31107874  0.70826720  0.41478901     0.77610
O2064       O  0.26077390  0.83487748  0.46647630    -0.58430
O2065       O  0.28144324  0.83038155  0.51634303    -0.51550
C2066       C  0.27060628  0.84396394  0.49052962     0.74210
Zr2067     Zr  0.25014479  0.79258806  0.45509628     2.54710
O2068       O  0.26386005  0.81615765  0.40439940    -0.79000
O2069       O  0.20630282  0.81872999  0.45556767    -0.92420
Zr2070     Zr  0.32642781  0.75712779  0.46150507     2.64680
O2071       O  0.33758671  0.78635250  0.41338262    -0.97370
O2072       O  0.37513351  0.73789166  0.46383440    -0.79430
O2073       O  0.27798777  0.75979704  0.43820332    -0.82790
O2074       O  0.29904353  0.79166955  0.47495963    -2.17500
O2075       O  0.22419827  0.76893686  0.56984346    -0.66180
O2076       O  0.27033758  0.78263222  0.58078508    -0.50750
C2077       C  0.24479455  0.77378904  0.58909030     0.72590
O2078       O  0.29598356  0.67134676  0.52812124    -0.59090
O2079       O  0.26710927  0.67532632  0.48209402    -0.51070
C2080       C  0.28162958  0.66212179  0.50593862     0.74390
O2081       O  0.33121300  0.73576476  0.58690584    -0.70480
O2082       O  0.32549680  0.77969346  0.57576259    -0.49160
C2083       C  0.33458685  0.75917172  0.59385851     0.75780
O2084       O  0.19289087  0.71491547  0.51031669    -0.65810
O2085       O  0.21109983  0.69714907  0.47125353    -0.53010
C2086       C  0.19146281  0.69956899  0.49046993     0.74160
Zr2087     Zr  0.22735742  0.74347980  0.53008589     2.77540
O2088       O  0.21606787  0.70492119  0.56787788    -0.96560
O2089       O  0.17836611  0.76124865  0.53117572    -0.77380
Zr2090     Zr  0.30806357  0.71378755  0.54174897     2.70070
O2091       O  0.30030820  0.68381519  0.59043560    -0.78630
O2092       O  0.35800224  0.69779330  0.54143083    -0.97710
Zr2093     Zr  0.25657509  0.71995338  0.46106943     2.21500
Zr2094     Zr  0.29485270  0.78507031  0.53038546     2.11130
O2095       O  0.27562425  0.74390834  0.55343120    -2.46400
O2096       O  0.25899222  0.71249246  0.51764867    -0.78420
O2097       O  0.24566911  0.78541514  0.50987890    -0.70620
O2098       O  0.30591549  0.71822237  0.48537421    -2.31580
O2099       O  0.22755599  0.75272507  0.47544826    -2.27780
O2100       O  0.32699796  0.75330530  0.51732597    -0.72380
H2101       H  0.30837411  0.80802616  0.46741415     0.79620
H2102       H  0.31677356  0.70395374  0.48032185     0.80710
H2103       H  0.27569122  0.73953383  0.57601976     0.82930
H2104       H  0.20719254  0.75228613  0.46803238     0.80540
H2105       H  0.37393874  0.72145005  0.47904827     0.43570
H2106       H  0.37049041  0.71035251  0.55075617     0.42540
H2107       H  0.28060455  0.67629176  0.58709718     0.42220
H2108       H  0.23380841  0.70121073  0.58229570     0.40160
H2109       H  0.17755969  0.77669055  0.51421755     0.43290
H2110       H  0.19009781  0.80609182  0.45966500     0.38070
H2111       H  0.28560849  0.81675385  0.40622779     0.44190
H2112       H  0.34186368  0.80320324  0.41996135     0.40600
H2113       H  0.20045609  0.71010470  0.58040221     0.45520
H2114       H  0.20230504  0.82749305  0.43349420     0.44250
H2115       H  0.35688573  0.78032049  0.40815608     0.44380
H2116       H  0.35888891  0.68180201  0.55757547     0.44740
O2117       O  0.47025616  0.66290863  0.41995464    -0.74130
O2118       O  0.47155710  0.61961239  0.41814948    -0.53040
C2119       C  0.46110101  0.64306997  0.40919390     0.79600
O2120       O  0.11372537  0.65823071  0.48492397    -0.58730
O2121       O  0.09638662  0.67439970  0.52581121    -0.51760
C2122       C  0.11627257  0.67158261  0.50690020     0.71610
O2123       O  0.07690964  0.60348830  0.42429996    -0.73290
O2124       O  0.03292100  0.58374402  0.41773654    -0.53850
C2125       C  0.06002858  0.58792482  0.41136608     0.77610
O2126       O  0.01810774  0.71323039  0.47673360    -0.58430
O2127       O  0.04079949  0.70325455  0.52566691    -0.51550
C2128       C  0.03090249  0.71919040  0.50186959     0.74210
Zr2129     Zr  0.50334768  0.67181444  0.46051926     2.54710
O2130       O  0.01972068  0.70085666  0.41015816    -0.79000
O2131       O  0.45918853  0.69827787  0.45750515    -0.92420
Zr2132     Zr  0.07716253  0.63330721  0.46228206     2.64680
O2133       O  0.08865249  0.66416406  0.41556010    -0.97370
O2134       O  0.12514498  0.61320519  0.46267129    -0.79430
O2135       O  0.02906337  0.63954902  0.43875642    -0.82790
O2136       O  0.05214855  0.66824561  0.47778021    -2.17500
O2137       O  0.47582916  0.64494944  0.57103462    -0.66180
O2138       O  0.02153162  0.65606850  0.58200728    -0.50750
C2139       C  0.49646757  0.64714696  0.59158773     0.72590
O2140       O  0.04134736  0.54771571  0.52510635    -0.59090
O2141       O  0.01439203  0.55328945  0.47770329    -0.51070
C2142       C  0.02760588  0.53925601  0.50211156     0.74390
O2143       O  0.07734063  0.60852968  0.58920147    -0.70480
O2144       O  0.07643458  0.65253688  0.57802093    -0.49160
C2145       C  0.08252976  0.63167688  0.59670128     0.75780
O2146       O  0.44392986  0.58962021  0.50935155    -0.65810
O2147       O  0.46137284  0.57578522  0.46715814    -0.53010
C2148       C  0.44197496  0.57640718  0.48712566     0.74160
Zr2149     Zr  0.47645019  0.61978553  0.53031919     2.77540
O2150       O  0.45042384  0.58866540  0.56758439    -0.96560
O2151       O  0.43053949  0.64397586  0.51825324    -0.77380
Zr2152     Zr  0.05516396  0.58851272  0.54105256     2.70070
O2153       O  0.04520263  0.55661438  0.58736226    -0.78630
O2154       O  0.10444641  0.57084109  0.54170362    -0.97710
Zr2155     Zr  0.00584376  0.59947038  0.45828707     2.21500
Zr2156     Zr  0.04670384  0.65818325  0.53278856     2.11130
O2157       O  0.02319878  0.61838782  0.55318622    -2.46400
O2158       O  0.50794542  0.58840117  0.51770463    -0.78420
O2159       O  0.49794078  0.66121377  0.51474568    -0.70620
O2160       O  0.05445353  0.59483491  0.48424932    -2.31580
O2161       O  0.47941108  0.63120548  0.47635836    -2.27780
O2162       O  0.07771015  0.62664723  0.51849752    -0.72380
H2163       H  0.06277853  0.68423388  0.47195377     0.79620
H2164       H  0.06469868  0.58048001  0.47857870     0.80710
H2165       H  0.02231329  0.61306867  0.57559756     0.82930
H2166       H  0.45919303  0.63156702  0.46824736     0.80540
H2167       H  0.12414193  0.59699313  0.47831866     0.43570
H2168       H  0.11696575  0.58162772  0.55375172     0.42540
H2169       H  0.02400977  0.55877409  0.59011413     0.42220
H2170       H  0.46574600  0.57730130  0.58002809     0.40160
H2171       H  0.43622035  0.66233494  0.51751967     0.43290
H2172       H  0.44252341  0.68596047  0.45834299     0.38070
H2173       H  0.02915186  0.68882074  0.39858645     0.44190
H2174       H  0.08969566  0.68117628  0.42244491     0.40600
H2175       H  0.44200318  0.59870939  0.58217878     0.45520
H2176       H  0.45772979  0.70835987  0.43582466     0.44250
H2177       H  0.10927173  0.66022018  0.41209080     0.44380
H2178       H  0.10372618  0.55374446  0.55573357     0.44740
O2179       O  0.46520372  0.90965503  0.41204335    -0.74130
O2180       O  0.46770668  0.86674582  0.40975339    -0.53040
C2181       C  0.45644273  0.88977857  0.40118647     0.79600
O2182       O  0.11173237  0.90872835  0.47658485    -0.58730
O2183       O  0.09357422  0.92794439  0.51484420    -0.51760
C2184       C  0.11378737  0.92389340  0.49677165     0.71610
O2185       O  0.07548829  0.84893285  0.42142240    -0.73290
O2186       O  0.03171819  0.82811468  0.41751589    -0.53850
C2187       C  0.05874433  0.83203877  0.41069233     0.77610
O2188       O  0.01055141  0.96165800  0.46357518    -0.58430
O2189       O  0.03275866  0.95586178  0.51281391    -0.51550
C2190       C  0.02120486  0.97007541  0.48788632     0.74210
Zr2191     Zr  0.00061815  0.91986741  0.44923973     2.54710
O2192       O  0.01785056  0.94440669  0.40054346    -0.79000
O2193       O  0.45673201  0.94799279  0.44670436    -0.92420
Zr2194     Zr  0.07551172  0.88169253  0.45589851     2.64680
O2195       O  0.08752724  0.90979415  0.40726401    -0.97370
O2196       O  0.12401061  0.86193570  0.45891555    -0.79430
O2197       O  0.02709738  0.88621701  0.43230880    -0.82790
O2198       O  0.04941416  0.91712913  0.46939149    -2.17500
O2199       O  0.47396556  0.89972101  0.56045289    -0.66180
O2200       O  0.02010449  0.90823239  0.57537681    -0.50750
C2201       C  0.99361660  0.90085520  0.58198040     0.72590
O2202       O  0.03493484  0.79731385  0.52303769    -0.59090
O2203       O  0.00503389  0.80249910  0.47755771    -0.51070
C2204       C  0.01777121  0.78893326  0.50202856     0.74390
O2205       O  0.07990980  0.85975708  0.58038598    -0.70480
O2206       O  0.07735049  0.90386887  0.56821102    -0.49160
C2207       C  0.08514725  0.88316819  0.58665748     0.75780
O2208       O  0.43981458  0.84420260  0.50349157    -0.65810
O2209       O  0.45753792  0.82672398  0.46397425    -0.53010
C2210       C  0.43794528  0.82921091  0.48326852     0.74160
Zr2211     Zr  0.47618462  0.87034402  0.52456009     2.77540
O2212       O  0.47414425  0.83142410  0.56482987    -0.96560
O2213       O  0.42630210  0.88251123  0.53301679    -0.77380
Zr2214     Zr  0.05512269  0.83848583  0.53538959     2.70070
O2215       O  0.05062829  0.80779522  0.58420175    -0.78630
O2216       O  0.10340208  0.82020984  0.53165698    -0.97710
Zr2217     Zr  0.00397021  0.84711682  0.45491754     2.21500
Zr2218     Zr  0.04473161  0.91038233  0.52477421     2.11130
O2219       O  0.02433914  0.86974814  0.54782326    -2.46400
O2220       O  0.00612105  0.83952163  0.51123695    -0.78420
O2221       O  0.99558959  0.91226352  0.50401401    -0.70620
O2222       O  0.05337647  0.84303372  0.47913745    -2.31580
O2223       O  0.47604774  0.88125397  0.46956947    -2.27780
O2224       O  0.07548255  0.87761931  0.51162966    -0.72380
H2225       H  0.05924541  0.93328714  0.46206440     0.79620
H2226       H  0.06316261  0.82808137  0.47438932     0.80710
H2227       H  0.02461256  0.86546110  0.57043023     0.82930
H2228       H  0.45571545  0.88151057  0.46183707     0.80540
H2229       H  0.12171408  0.84444915  0.47165936     0.43570
H2230       H  0.11686740  0.82950478  0.54464823     0.42540
H2231       H  0.02918922  0.80574750  0.58632661     0.42220
H2232       H  0.48644095  0.83471464  0.58332178     0.40160
H2233       H  0.42059747  0.89575521  0.51432574     0.43290
H2234       H  0.44007200  0.93582543  0.45071530     0.38070
H2235       H  0.03122732  0.93247838  0.39290004     0.44190
H2236       H  0.09111876  0.92699281  0.41316537     0.40600
H2237       H  0.45366250  0.83027483  0.57133896     0.45520
H2238       H  0.45368558  0.95612920  0.42427606     0.44250
H2239       H  0.10719382  0.90385511  0.40301141     0.44380
H2240       H  0.10248145  0.80236168  0.54382329     0.44740
C2241       C  0.03546296  0.74610763  0.50397844    -0.15270
C2242       C  0.01272693  0.76142326  0.50464197    -0.30450
H2243       H  0.05786949  0.75316427  0.50642110     0.13750
H2244       H  0.99039824  0.75439662  0.50140300     0.14330
C2245       C  0.02790433  0.51098410  0.50445852    -0.15270
C2246       C  0.01983763  0.99813919  0.48628305    -0.30450
H2247       H  0.03762494  0.49960207  0.52606867     0.13750
H2248       H  0.00990217  0.00956795  0.46481390     0.14330
C2249       C  0.16501244  0.68399068  0.48964632    -0.15270
C2250       C  0.14399664  0.68508695  0.50988590    -0.30450
H2251       H  0.16244968  0.67205796  0.47157870     0.13750
H2252       H  0.14664075  0.69691663  0.52805550     0.14330
C2253       C  0.41122044  0.81383073  0.48252079    -0.15270
C2254       C  0.39060056  0.81464877  0.50335135    -0.30450
H2255       H  0.40847102  0.80174785  0.46462682     0.13750
H2256       H  0.39335091  0.82676517  0.52120675     0.14330
C2257       C  0.16342100  0.93556062  0.48031801    -0.15270
C2258       C  0.14142144  0.93796707  0.49900757    -0.30450
H2259       H  0.16150282  0.92251209  0.46344355     0.13750
H2260       H  0.14340410  0.95099829  0.51589749     0.14330
C2261       C  0.27898414  0.88469610  0.50988951    -0.15270
C2262       C  0.26916081  0.87209071  0.48718239    -0.30450
H2263       H  0.28825373  0.87409657  0.53218883     0.13750
H2264       H  0.26028207  0.88279894  0.46475724     0.14330
C2265       C  0.27140095  0.62336885  0.48318556    -0.15270
C2266       C  0.28215516  0.63404684  0.50755823    -0.30450
H2267       H  0.26195272  0.63538320  0.46188240     0.13750
H2268       H  0.29214917  0.62210857  0.52862774     0.14330
C2269       C  0.39226348  0.56367318  0.50134786    -0.15270
C2270       C  0.41518522  0.56134779  0.48398926    -0.30450
H2271       H  0.39348698  0.57631344  0.51870603     0.13750
H2272       H  0.41387189  0.54899721  0.46631275     0.14330
C2273       C  0.22861725  0.49845772  0.61949997    -0.15270
C2274       C  0.23620432  0.52350379  0.60911840    -0.30450
H2275       H  0.23503803  0.48355428  0.60702343     0.13750
H2276       H  0.23092264  0.53899437  0.62143991     0.14330
C2277       C  0.09158540  0.91145680  0.62632813    -0.15270
C2278       C  0.10038709  0.88928493  0.61652554    -0.30450
H2279       H  0.07067221  0.91986815  0.61612673     0.13750
H2280       H  0.11980948  0.87860202  0.62722057     0.14330
C2281       C  0.22656302  0.74131344  0.63116694    -0.15270
C2282       C  0.23869087  0.76530631  0.62232825    -0.30450
H2283       H  0.22750000  0.72728105  0.61601652     0.13750
H2284       H  0.23951490  0.77965100  0.63757255     0.14330
C2285       C  0.09589237  0.63749862  0.62787174    -0.15270
C2286       C  0.08777802  0.66038564  0.63705686    -0.30450
H2287       H  0.11402318  0.62587010  0.64018324     0.13750
H2288       H  0.06809691  0.66999735  0.62516698     0.14330
C2289       C  0.14840441  0.83980438  0.74957062    -0.15270
C2290       C  0.15001969  0.85788456  0.72384549    -0.30450
H2291       H  0.14451806  0.84528350  0.77201498     0.13750
H2292       H  0.15476653  0.85254865  0.70155572     0.14330
C2293       C  0.13203186  0.60510154  0.75019043    -0.15270
C2294       C  0.14673239  0.59319585  0.73134474    -0.30450
H2295       H  0.11869281  0.59401342  0.76782248     0.13750
H2296       H  0.15961913  0.60445687  0.71339142     0.14330
C2297       C  0.34127864  0.78738989  0.63419236    -0.15270
C2298       C  0.34944440  0.76512950  0.62405921    -0.30450
H2299       H  0.32129761  0.79707371  0.62319333     0.13750
H2300       H  0.36806354  0.75363450  0.63544209     0.14330
C2301       C  0.46689858  0.86839439  0.61937310    -0.15270
C2302       C  0.48725338  0.88781638  0.61451435    -0.30450
H2303       H  0.45440830  0.86314309  0.59940956     0.13750
H2304       H  0.00030473  0.89350299  0.63424138     0.14330
C2305       C  0.03798505  0.79229948  0.74059949    -0.15270
C2306       C  0.01305389  0.78878060  0.72376715    -0.30450
H2307       H  0.03885185  0.80565283  0.75713930     0.13750
H2308       H  0.51243207  0.77495293  0.70700585     0.14330
C2309       C  0.28970883  0.91973121  0.73545643    -0.15270
C2310       C  0.26465524  0.91796205  0.71755656    -0.30450
H2311       H  0.29028444  0.93212618  0.75306060     0.13750
H2312       H  0.26421475  0.90559877  0.69992003     0.14330
C2313       C  0.33425803  0.53898234  0.62843996    -0.15270
C2314       C  0.34345631  0.51688211  0.61881734    -0.30450
H2315       H  0.31458708  0.54857086  0.61648442     0.13750
H2316       H  0.36203909  0.00657372  0.63073618     0.14330
C2317       C  0.48919764  0.63808593  0.62388987    -0.15270
C2318       C  0.47767024  0.61387123  0.63111245    -0.30450
H2319       H  0.48653658  0.65267761  0.63836889     0.13750
H2320       H  0.48215790  0.59947335  0.61704826     0.14330
C2321       C  0.50376859  0.53416052  0.71666299    -0.15270
C2322       C  0.02912403  0.53675599  0.73355794    -0.30450
H2323       H  0.50253267  0.52152195  0.69930979     0.13750
H2324       H  0.02998604  0.54910284  0.75123754     0.14330
C2325       C  0.38805401  0.98076688  0.73493348    -0.15270
C2326       C  0.40952763  0.96986025  0.72229630    -0.30450
H2327       H  0.37001029  0.46771963  0.75649812     0.13750
H2328       H  0.42510460  0.98143107  0.70769266     0.14330
C2329       C  0.38827263  0.73034276  0.75560065    -0.15270
C2330       C  0.40209456  0.71617680  0.73822013    -0.30450
H2331       H  0.37464290  0.72079598  0.77395676     0.13750
H2332       H  0.41517312  0.72605255  0.71952263     0.14330
C2333       C  0.28156556  0.66363751  0.74093659    -0.15270
C2334       C  0.25646377  0.66088249  0.72409321    -0.30450
H2335       H  0.28267542  0.67638757  0.75817779     0.13750
H2336       H  0.25520076  0.64782390  0.70720387     0.14330
C2337       C  0.44632203  0.83473723  0.87160523    -0.15270
C2338       C  0.45291946  0.85966128  0.85984005    -0.30450
H2339       H  0.42762025  0.82602329  0.86059054     0.13750
H2340       H  0.47217904  0.86832070  0.86983868     0.14330
C2341       C  0.06658446  0.75749190  0.86519089    -0.15270
C2342       C  0.07031119  0.73327129  0.85758657    -0.30450
H2343       H  0.07378331  0.77479183  0.84980661     0.13750
H2344       H  0.06250188  0.71602869  0.87260353     0.14330
C2345       C  0.43808602  0.55507804  0.86657143    -0.15270
C2346       C  0.42757413  0.57943953  0.86643149    -0.30450
H2347       H  0.44033999  0.54868707  0.84447185     0.13750
H2348       H  0.42329427  0.58597491  0.88804848     0.14330
C2349       C  0.06795976  0.96758708  0.84579611    -0.15270
C2350       C  0.06723492  0.98988239  0.85769319    -0.30450
H2351       H  0.05685728  0.95026547  0.85695588     0.13750
H2352       H  0.08049434  0.50460790  0.84929330     0.14330
C2353       C  0.01852838  0.88413142  0.97891651    -0.15270
C2354       C  0.02166387  0.90333326  0.95446209    -0.30450
H2355       H  0.01719088  0.88917898  0.00208345     0.13750
H2356       H  0.02032376  0.89929631  0.93068963     0.14330
C2357       C  0.00691737  0.63114802  0.00196418    -0.15270
C2358       C  0.01543805  0.64267030  0.02624761    -0.30450
H2359       H  0.49708520  0.64328377  0.98138378     0.13750
H2360       H  0.02118705  0.63148458  0.04941404     0.14330
C2361       C  0.32471869  0.88890027  0.85843804    -0.15270
C2362       C  0.32907206  0.86498662  0.85082823    -0.30450
H2363       H  0.33220830  0.90638534  0.84361259     0.13750
H2364       H  0.32109988  0.84758643  0.86541348     0.14330
C2365       C  0.21151150  0.96907555  0.86251344    -0.15270
C2366       C  0.18355323  0.97734563  0.85596499    -0.30450
H2367       H  0.22814057  0.97677540  0.84641030     0.13750
H2368       H  0.16754194  0.46997530  0.87263674     0.14330
C2369       C  0.14884397  0.82606229  0.99338041    -0.15270
C2370       C  0.12630898  0.82923638  0.97080340    -0.30450
H2371       H  0.14734879  0.81158972  0.01456863     0.13750
H2372       H  0.12778026  0.84369752  0.94960342     0.14330
C2373       C  0.37501975  0.96241106  0.96095785    -0.15270
C2374       C  0.39979031  0.95661230  0.94837591    -0.30450
H2375       H  0.37474538  0.97834059  0.97387727     0.13750
H2376       H  0.40007652  0.94069430  0.93543845     0.14330
C2377       C  0.31254517  0.61770716  0.86793663    -0.15270
C2378       C  0.31502555  0.59541290  0.85624678    -0.30450
H2379       H  0.32431401  0.63468178  0.85682914     0.13750
H2380       H  0.30490896  0.57770486  0.86779412     0.14330
C2381       C  0.18794028  0.68373474  0.87665451    -0.15270
C2382       C  0.17923874  0.70888621  0.87416217    -0.30450
H2383       H  0.18950461  0.67568437  0.85548869     0.13750
H2384       H  0.17676587  0.71756230  0.89478431     0.14330
C2385       C  0.12436176  0.58348058  0.99290432    -0.15270
C2386       C  0.14412983  0.58497766  0.97003526    -0.30450
H2387       H  0.12988916  0.59081287  0.01443182     0.13750
H2388       H  0.13889599  0.57696330  0.94892266     0.14330
C2389       C  0.25901293  0.75283890  0.02839768    -0.15270
C2390       C  0.25488306  0.77204291  0.00343895    -0.30450
H2391       H  0.26576265  0.75717804  0.05137472     0.13750
H2392       H  0.25007428  0.76704198  0.98036164     0.14330
C2393       C  0.26289139  0.52474258  0.97836481    -0.15270
C2394       C  0.25984498  0.51233541  0.95379104    -0.30450
H2395       H  0.26564916  0.51303531  0.00178425     0.13750
H2396       H  0.25977731  0.52314496  0.92993072     0.14330
C2397       C  0.39466224  0.70229713  0.02136585    -0.15270
C2398       C  0.36867838  0.71290486  0.00992087    -0.30450
H2399       H  0.39556784  0.68288508  0.03538163     0.13750
H2400       H  0.36784101  0.73200428  0.99515525     0.14330
C2401       C  0.18592043  0.84449773  0.11700865    -0.15270
C2402       C  0.19090629  0.87019170  0.10479284    -0.30450
H2403       H  0.19235089  0.82930254  0.10474883     0.13750
H2404       H  0.18425770  0.88544636  0.11683772     0.14330
C2405       C  0.07954770  0.75491106  0.13262271    -0.15270
C2406       C  0.05243754  0.74544107  0.12672031    -0.30450
H2407       H  0.09665971  0.75255592  0.11696124     0.13750
H2408       H  0.03505006  0.74692663  0.14235225     0.14330
C2409       C  0.16668835  0.78932753  0.37965811    -0.15270
C2410       C  0.18248373  0.76663240  0.38328411    -0.30450
H2411       H  0.16477380  0.79927805  0.39936913     0.13750
H2412       H  0.18279755  0.75603478  0.36399315     0.14330
C2413       C  0.06245712  0.79906376  0.37245366    -0.15270
C2414       C  0.07280428  0.81819333  0.38796957    -0.30450
H2415       H  0.04250649  0.78843405  0.37874530     0.13750
H2416       H  0.09379412  0.82678675  0.38105433     0.14330
C2417       C  0.22264665  0.59046886  0.13801683    -0.15270
C2418       C  0.23658604  0.61419213  0.13301824    -0.30450
H2419       H  0.22116416  0.57897615  0.11946031     0.13750
H2420       H  0.23967839  0.62547515  0.15166567     0.14330
C2421       C  0.08276179  0.52072413  0.12960246    -0.15270
C2422       C  0.09136470  0.50377881  0.11152021    -0.30450
H2423       H  0.06159882  0.53029255  0.12311664     0.13750
H2424       H  0.11121477  0.49223563  0.11760052     0.14330
C2425       C  0.12648278  0.92541296  0.26237899    -0.15270
C2426       C  0.13479295  0.94442531  0.23914154    -0.30450
H2427       H  0.11860484  0.93024106  0.28377563     0.13750
H2428       H  0.14322822  0.93943381  0.21807769     0.14330
C2429       C  0.13534905  0.67655181  0.26297524    -0.15270
C2430       C  0.13327246  0.69398918  0.23621674    -0.30450
H2431       H  0.13260733  0.68223155  0.28555538     0.13750
H2432       H  0.13651001  0.68849329  0.21364032     0.14330
C2433       C  0.18523639  0.55012837  0.37774034    -0.15270
C2434       C  0.19077652  0.52431851  0.38010429    -0.30450
H2435       H  0.19890023  0.56095390  0.39203362     0.13750
H2436       H  0.17758715  0.51289269  0.36591587     0.14330
C2437       C  0.06617226  0.55647928  0.37105290    -0.15270
C2438       C  0.07407983  0.57647670  0.38644752    -0.30450
H2439       H  0.04790961  0.54376920  0.37809096     0.13750
H2440       H  0.09406867  0.58688113  0.37944912     0.14330
C2441       C  0.33255486  0.88992980  0.12233365    -0.15270
C2442       C  0.30521768  0.88016294  0.11621828    -0.30450
H2443       H  0.34964388  0.88693487  0.10695302     0.13750
H2444       H  0.28764831  0.88210579  0.13144609     0.14330
C2445       C  0.46586648  0.97173071  0.12437662    -0.15270
C2446       C  0.47997850  0.49501096  0.11795553    -0.30450
H2447       H  0.46466716  0.95950565  0.10657943     0.13750
H2448       H  0.48314890  0.50692629  0.13594709     0.14330
C2449       C  0.49441233  0.87255425  0.22688114    -0.15270
C2450       C  0.01502836  0.86900730  0.25101406    -0.30450
H2451       H  0.49611354  0.86288303  0.20688358     0.13750
H2452       H  0.01339213  0.87884974  0.27085537     0.14330
C2453       C  0.25338134  0.50441197  0.22811427    -0.15270
C2454       C  0.27605626  0.00520207  0.24576177    -0.30450
H2455       H  0.25221720  0.99388188  0.20694016     0.13750
H2456       H  0.27708099  0.51474177  0.26764332     0.14330
C2457       C  0.31416771  0.93141557  0.36255711    -0.15270
C2458       C  0.32259438  0.95095192  0.37849476    -0.30450
H2459       H  0.29648577  0.91822576  0.37021243     0.13750
H2460       H  0.34189440  0.96201521  0.37056320     0.14330
C2461       C  0.41790246  0.91874119  0.37315096    -0.15270
C2462       C  0.43253790  0.89569248  0.37647544    -0.30450
H2463       H  0.41627691  0.92857183  0.39300790     0.13750
H2464       H  0.43243542  0.88521895  0.35702403     0.14330
C2465       C  0.32999584  0.63270170  0.14243658    -0.15270
C2466       C  0.34228750  0.62020545  0.12166813    -0.30450
H2467       H  0.30650136  0.63672152  0.13889246     0.13750
H2468       H  0.36553024  0.61539957  0.12389540     0.14330
C2469       C  0.44337214  0.72252348  0.12402144    -0.15270
C2470       C  0.44714687  0.74850919  0.11285767    -0.30450
H2471       H  0.44771410  0.70803515  0.10983742     0.13750
H2472       H  0.44346127  0.76305695  0.12714792     0.14330
C2473       C  0.50236240  0.62915910  0.23590078    -0.15270
C2474       C  0.02562323  0.62599663  0.25688409    -0.30450
H2475       H  0.50341889  0.61976790  0.21559889     0.13750
H2476       H  0.02493911  0.63570183  0.27696739     0.14330
C2477       C  0.37591467  0.80597486  0.25611719    -0.15270
C2478       C  0.38327363  0.82363513  0.23096376    -0.30450
H2479       H  0.36766688  0.81211750  0.27661339     0.13750
H2480       H  0.39214094  0.81751392  0.21075640     0.14330
C2481       C  0.38981124  0.57179360  0.23857640    -0.15270
C2482       C  0.38652860  0.55231633  0.26269875    -0.30450
H2483       H  0.39600902  0.56785797  0.21606025     0.13750
H2484       H  0.38092205  0.55622325  0.28542256     0.14330
C2485       C  0.26810905  0.75037299  0.25178996    -0.15270
C2486       C  0.24590310  0.75172493  0.22923263    -0.30450
H2487       H  0.26638315  0.76046923  0.27141245     0.13750
H2488       H  0.24744538  0.74149509  0.20970234     0.14330
C2489       C  0.31648048  0.67648430  0.37528204    -0.15270
C2490       C  0.32555691  0.69584246  0.39105816    -0.30450
H2491       H  0.29742363  0.66462518  0.38182128     0.13750
H2492       H  0.34595053  0.70557352  0.38406738     0.14330
C2493       C  0.43655981  0.64884180  0.38511606    -0.15270
C2494       C  0.42239450  0.67241291  0.37944621    -0.30450
H2495       H  0.43192527  0.63463696  0.37006288     0.13750
H2496       H  0.42597780  0.68623838  0.39517432     0.14330
O2497       O  0.83762671  0.15547087  0.33439068    -0.74130
O2498       O  0.83537352  0.19950491  0.33015806    -0.53040
C2499       C  0.83031574  0.17660656  0.34447846     0.79600
O2500       O  0.97371920  0.15543193  0.25936392    -0.58730
O2501       O  0.95366714  0.14413771  0.21444153    -0.51760
C2502       C  0.97477036  0.14395543  0.23568751     0.71610
O2503       O  0.92798545  0.17381948  0.33385794    -0.73290
O2504       O  0.88862592  0.19732492  0.34250160    -0.53850
C2505       C  0.90944823  0.18023602  0.35184997     0.77610
O2506       O  0.87465417  0.10491315  0.26491915    -0.59230
O2507       O  0.89916030  0.11590889  0.21970816    -0.51550
C2508       C  0.88786520  0.09949706  0.24134030     0.74210
Zr2509     Zr  0.86186771  0.14299909  0.28680633     2.54710
O2510       O  0.88087806  0.11173691  0.33201774    -0.79000
O2511       O  0.81464653  0.12144725  0.28185130    -0.92420
Zr2512     Zr  0.93979300  0.18229274  0.28090618     2.64680
O2513       O  0.97573375  0.16098665  0.32122800    -0.97370
O2514       O  0.97535446  0.21695440  0.28344953    -0.79430
O2515       O  0.89158986  0.17660064  0.29706623    -0.82790
O2516       O  0.91017667  0.14901048  0.26500653    -2.17500
O2517       O  0.82787250  0.16042658  0.17876186    -0.66180
O2518       O  0.87285354  0.14586527  0.16941574    -0.50750
C2519       C  0.84466958  0.14670855  0.16523085     0.72590
O2520       O  0.88497864  0.27111713  0.23149042    -0.59090
O2521       O  0.87334063  0.26127861  0.28249823    -0.51070
C2522       C  0.87784553  0.27748911  0.25711263     0.74390
O2523       O  0.92446104  0.23120409  0.16847881    -0.70480
O2524       O  0.92419817  0.18901274  0.16177921    -0.49160
C2525       C  0.92928845  0.21359574  0.15288924     0.75780
O2526       O  0.79661861  0.22207266  0.22954066    -0.65810
O2527       O  0.81545739  0.23428353  0.27479048    -0.53010
C2528       C  0.79536067  0.23458048  0.25225337     0.74160
Zr2529     Zr  0.83004466  0.19218884  0.21411552     2.77540
O2530       O  0.81218967  0.21851862  0.16446771    -0.96560
O2531       O  0.78253957  0.17101027  0.22158725    -0.77380
Zr2532     Zr  0.90417182  0.23345136  0.21602848     2.70070
O2533       O  0.89439377  0.26987263  0.17326515    -0.78630
O2534       O  0.95152608  0.25292335  0.22717910    -0.97710
Zr2535     Zr  0.86464738  0.21473868  0.28841685     2.21500
Zr2536     Zr  0.90404116  0.16220200  0.20903213     2.11130
O2537       O  0.87657447  0.20131010  0.19381353    -2.46400
O2538       O  0.85644880  0.22607615  0.23325116    -0.78420
O2539       O  0.85699622  0.15391614  0.23097028    -0.70620
O2540       O  0.91337856  0.22242167  0.27098785    -2.31580
O2541       O  0.83517748  0.18190415  0.26975009    -2.27780
O2542       O  0.93333244  0.19522929  0.22638426    -0.72380
H2543       H  0.92121402  0.13304062  0.27052774     0.79620
H2544       H  0.92328714  0.23593476  0.28008027     0.80710
H2545       H  0.87379708  0.20609547  0.17124031     0.82930
H2546       H  0.81600253  0.18067339  0.27824006     0.80540
H2547       H  0.97813654  0.21772645  0.30611519     0.43570
H2548       H  0.96568258  0.24429699  0.21596399     0.42540
H2549       H  0.87448643  0.26645063  0.16438771     0.42220
H2550       H  0.82209948  0.21145869  0.14811456     0.40160
H2551       H  0.78707588  0.15223497  0.22583763     0.43290
H2552       H  0.80055261  0.13211396  0.29055059     0.38070
H2553       H  0.87407933  0.11784538  0.35068767     0.44190
H2554       H  0.97354230  0.14219853  0.32106807     0.40600
H2555       H  0.79135831  0.21333919  0.16179843     0.45520
H2556       H  0.81651393  0.10520141  0.29752304     0.44250
H2557       H  0.99526317  0.16556465  0.31301410     0.44380
H2558       H  0.95006458  0.27088233  0.21525625     0.44740
O2559       O  0.89659756  0.02147609  0.23103426    -0.74130
O2560       O  0.88326059  0.50676564  0.28362021    -0.53040
C2561       C  0.88868072  0.02584593  0.25766470     0.79600
O2562       O  0.82631272  0.41741878  0.16259113    -0.58730
O2563       O  0.87211714  0.40406985  0.15433426    -0.51760
C2564       C  0.84406463  0.40489638  0.14834325     0.71610
O2565       O  0.80304953  0.47779531  0.22157657    -0.73290
O2566       O  0.82291512  0.48703918  0.26812227    -0.53850
C2567       C  0.80279204  0.48891879  0.24568443     0.77610
O2568       O  0.94248520  0.48078058  0.16818121    -0.58430
O2569       O  0.93527535  0.43988110  0.15763329    -0.51550
C2570       C  0.94696482  0.46313907  0.15223502     0.74210
Zr2571     Zr  0.91080255  0.48444285  0.20889223     2.54710
O2572       O  0.89317797  0.01776406  0.16230839    -0.79000
O2573       O  0.95712659  0.50670427  0.21708315    -0.92420
Zr2574     Zr  0.83346258  0.44872699  0.20002754     2.64680
O2575       O  0.82592583  0.48109705  0.15234158    -0.97370
O2576       O  0.78184563  0.43668871  0.19560204    -0.79430
O2577       O  0.86252653  0.47845490  0.22480000    -0.82790
O2578       O  0.88169694  0.45511343  0.18262061    -2.17500
O2579       O  0.96763036  0.39895093  0.25094439    -0.66180
O2580       O  0.94917488  0.38997131  0.20427564    -0.50750
C2581       C  0.96864785  0.38776509  0.22719736     0.72590
O2582       O  0.83365542  0.40849752  0.32222309    -0.59090
O2583       O  0.83708303  0.45209899  0.32021913    -0.51070
C2584       C  0.82903838  0.42971748  0.33345974     0.74390
O2585       O  0.86618423  0.35764213  0.25303126    -0.70480
O2586       O  0.89377788  0.36652962  0.20981082    -0.49160
C2587       C  0.88024088  0.35098685  0.23099474     0.75780
O2588       O  0.93724277  0.42840906  0.32801699    -0.65810
O2589       O  0.89051504  0.44079190  0.33302027    -0.53010
C2590       C  0.91491008  0.42887651  0.34407814     0.74160
Zr2591     Zr  0.93875218  0.42780311  0.27371314     2.77540
O2592       O  0.97016155  0.39950252  0.31283643    -0.96560
O2593       O  0.97992544  0.45792588  0.27043500    -0.77380
Zr2594     Zr  0.85664798  0.39586902  0.27392129     2.70070
O2595       O  0.86992146  0.36152915  0.31816822    -0.78630
O2596       O  0.80697018  0.37942156  0.26685708    -0.97710
Zr2597     Zr  0.86887560  0.46357885  0.28005949     2.21500
Zr2598     Zr  0.90359428  0.41343039  0.19819894     2.11130
O2599       O  0.90573970  0.39868186  0.25426076    -2.46400
O2600       O  0.89083178  0.42317661  0.29189590    -0.78420
O2601       O  0.93458767  0.44337598  0.21965744    -0.70620
O2602       O  0.83536961  0.43644603  0.25611753    -2.31580
O2603       O  0.91768552  0.46974879  0.26384722    -2.27780
O2604       O  0.85526635  0.40813166  0.21767833    -0.72380
H2605       H  0.88122620  0.46049959  0.16006068     0.79620
H2606       H  0.81597501  0.43653635  0.26392302     0.80710
H2607       H  0.91487702  0.38181622  0.25983110     0.82930
H2608       H  0.92895001  0.48149942  0.27471479     0.80540
H2609       H  0.77839672  0.42547639  0.21600460     0.43570
H2610       H  0.80448649  0.37855551  0.24419802     0.42540
H2611       H  0.89162463  0.36254355  0.32079787     0.42220
H2612       H  0.96600412  0.38159442  0.30948955     0.40160
H2613       H  0.99414475  0.45052960  0.25806024     0.43290
H2614       H  0.95596687  0.51263151  0.23741359     0.38070
H2615       H  0.87186419  0.01959057  0.16468023     0.44190
H2616       H  0.82697562  0.47124832  0.13496517     0.40600
H2617       H  0.99055404  0.40310441  0.30664891     0.45520
H2618       H  0.95406555  0.02391752  0.19873771     0.44250
H2619       H  0.80495532  0.48603003  0.15183150     0.44380
H2620       H  0.80800349  0.36108111  0.27756570     0.44740
O2621       O  0.64835560  0.14394115  0.23678455    -0.74130
O2622       O  0.63430626  0.13304621  0.28693126    -0.53040
C2623       C  0.63997040  0.14954453  0.26247488     0.79600
O2624       O  0.58227081  0.04536374  0.17018228    -0.58730
O2625       O  0.62490753  0.02521660  0.16358080    -0.51760
C2626       C  0.59756146  0.03060047  0.15648190     0.71610
O2627       O  0.55319128  0.10124751  0.23026768    -0.73290
O2628       O  0.57328486  0.11097624  0.27640288    -0.53850
C2629       C  0.55265527  0.11257969  0.25417722     0.77610
O2630       O  0.69826321  0.10041322  0.18016676    -0.58430
O2631       O  0.68854886  0.06053720  0.16772999    -0.51550
C2632       C  0.70205099  0.08294118  0.16391554     0.74210
Zr2633     Zr  0.66329195  0.10687846  0.21595272     2.54710
O2634       O  0.64792721  0.13717442  0.16841998    -0.79000
O2635       O  0.70821415  0.13154264  0.22266200    -0.92420
Zr2636     Zr  0.58611554  0.07291981  0.21033825     2.64680
O2637       O  0.57703647  0.10686316  0.16444139    -0.97370
O2638       O  0.53584462  0.05729393  0.20572986    -0.79430
O2639       O  0.61531987  0.10317781  0.23297466    -0.82790
O2640       O  0.63379854  0.07735737  0.19119734    -2.17500
O2641       O  0.72527800  0.02950919  0.25503086    -0.66180
O2642       O  0.70290770  0.01523352  0.21287183    -0.50750
C2643       C  0.72508762  0.01732922  0.23185468     0.72590
O2644       O  0.58654966  0.03249463  0.33117058    -0.59090
O2645       O  0.59031343  0.07618542  0.32892728    -0.51070
C2646       C  0.58198417  0.05384616  0.34208931     0.74390
O2647       O  0.62053979  0.47954960  0.26492745    -0.70480
O2648       O  0.64644215  0.98883926  0.21967571    -0.49160
C2649       C  0.63376584  0.47297523  0.24202249     0.75780
O2650       O  0.69366473  0.07096553  0.32771938    -0.65810
O2651       O  0.64683000  0.07104491  0.34033534    -0.53010
C2652       C  0.67430219  0.06560926  0.34756933     0.74160
Zr2653     Zr  0.69135036  0.05081364  0.28276509     2.77540
O2654       O  0.70929841  0.01315554  0.32032020    -0.96560
O2655       O  0.73923042  0.07116807  0.28796467    -0.77380
Zr2656     Zr  0.61029008  0.01906026  0.28398695     2.70070
O2657       O  0.62381904  0.48606491  0.33042723    -0.78630
O2658       O  0.56103438  0.00173154  0.27700164    -0.97710
Zr2659     Zr  0.62121465  0.08861349  0.28809008     2.21500
Zr2660     Zr  0.65566235  0.03563172  0.20764906     2.11130
O2661       O  0.65881126  0.02127713  0.26371355    -2.46400
O2662       O  0.64366297  0.04737250  0.30286522    -0.78420
O2663       O  0.68631135  0.06584705  0.22867642    -0.70620
O2664       O  0.58865823  0.05991960  0.26603052    -2.31580
O2665       O  0.66993872  0.09296036  0.27063079    -2.27780
O2666       O  0.60758879  0.03184552  0.22781654    -0.72380
H2667       H  0.63296859  0.08232879  0.16857433     0.79620
H2668       H  0.56927072  0.06004792  0.27383706     0.80710
H2669       H  0.66825891  0.00454202  0.26911936     0.82930
H2670       H  0.68134556  0.10535017  0.28032397     0.80540
H2671       H  0.53305668  0.04591083  0.22618688     0.43570
H2672       H  0.55924531  0.99943446  0.25476920     0.42540
H2673       H  0.64549235  0.48471533  0.33054932     0.42220
H2674       H  0.70960293  0.99878110  0.30833796     0.40160
H2675       H  0.74077061  0.08339495  0.26786129     0.43290
H2676       H  0.70801830  0.13599037  0.24390374     0.38070
H2677       H  0.62818729  0.14308695  0.17247185     0.44190
H2678       H  0.58236150  0.09901272  0.14640332     0.40600
H2679       H  0.73029939  0.01695782  0.32483846     0.45520
H2680       H  0.70495736  0.14827232  0.20813053     0.44250
H2681       H  0.55534875  0.10849464  0.16193441     0.44380
H2682       H  0.56231338  0.48407215  0.29013559     0.44740
O2683       O  0.66757387  0.35444570  0.16192828    -0.74130
O2684       O  0.66925054  0.31180886  0.15699970    -0.53040
C2685       C  0.67371929  0.33651046  0.14711843     0.79600
O2686       O  0.68307087  0.30495502  0.33070980    -0.58730
O2687       O  0.63582543  0.31518480  0.33742378    -0.51760
C2688       C  0.66128129  0.30475284  0.34773845     0.71610
O2689       O  0.71834569  0.27896515  0.25396586    -0.73290
O2690       O  0.69797527  0.26579480  0.21025957    -0.53850
C2691       C  0.71924705  0.26663946  0.23112279     0.77610
O2692       O  0.63571682  0.39328442  0.23324403    -0.58430
O2693       O  0.61976882  0.38081533  0.28246197    -0.51550
C2694       C  0.62739109  0.39822478  0.25938133     0.74210
Zr2695     Zr  0.64663491  0.35563274  0.21033720     2.54710
O2696       O  0.69378640  0.37780323  0.21159783    -0.79000
O2697       O  0.62258617  0.38913750  0.17093891    -0.92420
Zr2698     Zr  0.68368532  0.30352384  0.27643517     2.64680
O2699       O  0.72280456  0.33537339  0.27721656    -0.97370
O2700       O  0.71373517  0.27090089  0.31122053    -0.79430
O2701       O  0.67633930  0.31753210  0.22188324    -0.82790
O2702       O  0.65751566  0.34352282  0.26519012    -2.17500
O2703       O  0.54174331  0.34026256  0.22777210    -0.66180
O2704       O  0.56116827  0.35322220  0.27242651    -0.50750
C2705       C  0.54094812  0.35288902  0.25035440     0.72590
O2706       O  0.61739142  0.22727044  0.26003790    -0.59090
O2707       O  0.64252848  0.23763941  0.21508369    -0.51070
C2708       C  0.63090576  0.22159516  0.23695236     0.74390
O2709       O  0.58322797  0.27681215  0.33155490    -0.70480
O2710       O  0.58106985  0.32084050  0.32687818    -0.49160
C2711       C  0.57622588  0.29805331  0.34160083     0.75780
O2712       O  0.57016050  0.28079629  0.17223641    -0.65810
O2713       O  0.61678574  0.26982018  0.16344185    -0.53010
C2714       C  0.58871479  0.26907191  0.15818364     0.74160
Zr2715     Zr  0.57414697  0.31167145  0.20953950     2.77540
O2716       O  0.52702555  0.28932144  0.21476877    -0.96560
O2717       O  0.55690166  0.33957888  0.16080902    -0.77380
Zr2718     Zr  0.60665320  0.26425929  0.28354236     2.70070
O2719       O  0.56056845  0.24023462  0.28630251    -0.78630
O2720       O  0.63038640  0.23362520  0.32658127    -0.97710
Zr2721     Zr  0.64830157  0.28410454  0.20410295     2.21500
Zr2722     Zr  0.61017104  0.33469842  0.28472930     2.11130
O2723       O  0.57990267  0.30244820  0.26551570    -2.46400
O2724       O  0.60194979  0.27435136  0.22728655    -0.78420
O2725       O  0.60012249  0.34573431  0.22954834    -0.70620
O2726       O  0.65390387  0.27087636  0.26015523    -2.31580
O2727       O  0.62009346  0.32249759  0.18855213    -2.27780
O2728       O  0.63696605  0.29640617  0.29689166    -0.72380
H2729       H  0.66793603  0.35680078  0.27424582     0.79620
H2730       H  0.66500829  0.25492855  0.26539951     0.80710
H2731       H  0.56094140  0.30108413  0.27448293     0.82930
H2732       H  0.61722359  0.32703562  0.16595409     0.80540
H2733       H  0.70245565  0.25458198  0.31200450     0.43570
H2734       H  0.62610857  0.24022558  0.34585049     0.42540
H2735       H  0.54877599  0.24802714  0.26700445     0.42220
H2736       H  0.52104834  0.29068940  0.23599139     0.40160
H2737       H  0.56157517  0.35735626  0.16430957     0.43290
H2738       H  0.61491820  0.38000613  0.15400585     0.38070
H2739       H  0.70865819  0.36390664  0.21323102     0.44190
H2740       H  0.72149977  0.34134907  0.29750717     0.40600
H2741       H  0.51303563  0.30064728  0.20018474     0.45520
H2742       H  0.63882188  0.40004385  0.16171080     0.44250
H2743       H  0.74114300  0.32501965  0.27991275     0.44380
H2744       H  0.61854870  0.21760144  0.32751772     0.44740
O2745       O  0.72109061  0.12119973  0.08046698    -0.74130
O2746       O  0.76174287  0.14389595  0.09227203    -0.53040
C2747       C  0.74018850  0.12783312  0.10005778     0.79600
O2748       O  0.78563640  0.06014711  0.99747903    -0.58730
O2749       O  0.75280894  0.06968964  0.95466307    -0.51760
C2750       C  0.77006305  0.05405182  0.97410512     0.71610
O2751       O  0.81995624  0.10301968  0.07662284    -0.73290
O2752       O  0.81794440  0.14593925  0.08013719    -0.53850
C2753       C  0.82595775  0.12262229  0.09063846     0.77610
O2754       O  0.67724836  0.10619954  0.99876001    -0.58430
O2755       O  0.69231706  0.09787492  0.95254033    -0.51550
C2756       C  0.67308969  0.09716484  0.97356623     0.74210
Zr2757     Zr  0.71415341  0.12692730  0.02570726     2.54710
O2758       O  0.68816007  0.09079489  0.05549739    -0.79000
O2759       O  0.67403016  0.15591312  0.03103458    -0.92420
Zr2760     Zr  0.79414023  0.09590063  0.02553404     2.64680
O2761       O  0.78408206  0.05845696  0.06551112    -0.97370
O2762       O  0.84386814  0.08201023  0.01886765    -0.79430
O2763       O  0.76284911  0.12186054  0.04729693    -0.82790
O2764       O  0.74390956  0.09893320  0.00384100    -2.17500
O2765       O  0.69692311  0.17662589  0.93127087    -0.66180
O2766       O  0.71533479  0.14687317  0.90578008    -0.50750
C2767       C  0.70041533  0.16779886  0.90622179     0.72590
O2768       O  0.83872503  0.18902655  0.98083048    -0.59090
O2769       O  0.82892616  0.18789779  0.03228432    -0.51070
C2770       C  0.84359327  0.19558444  0.00779196     0.74390
O2771       O  0.81433534  0.13322661  0.91467549    -0.70480
O2772       O  0.77328743  0.10965516  0.90569096    -0.49160
C2773       C  0.79929968  0.11823777  0.89902307     0.75780
O2774       O  0.74680251  0.22096202  0.99704598    -0.65810
O2775       O  0.77017621  0.20732778  0.04508428    -0.53010
C2776       C  0.75831415  0.22502762  0.02372860     0.74160
Zr2777     Zr  0.73644477  0.18681149  0.96600212     2.77540
O2778       O  0.75499696  0.21718898  0.92224195    -0.96560
O2779       O  0.69561312  0.21709510  0.96159046    -0.77380
Zr2780     Zr  0.81301851  0.15442271  0.96084327     2.70070
O2781       O  0.83002832  0.18509225  0.91650639    -0.78630
O2782       O  0.86247126  0.13641592  0.97135873    -0.97710
Zr2783     Zr  0.78306065  0.16360594  0.04045289     2.21500
Zr2784     Zr  0.74260861  0.11653560  0.94870692     2.11130
O2785       O  0.76402327  0.15939035  0.93957275    -2.46400
O2786       O  0.78520301  0.18184365  0.98608320    -0.78420
O2787       O  0.71437769  0.14500035  0.97248610    -0.70620
O2788       O  0.81427365  0.13780780  0.01562415    -2.31580
O2789       O  0.73338757  0.16939064  0.02018703    -2.27780
O2790       O  0.79249726  0.11269660  0.97062577    -0.72380
H2791       H  0.73495599  0.08197017  0.00727503     0.79620
H2792       H  0.83427738  0.13771896  0.02446168     0.80710
H2793       H  0.76424012  0.16639873  0.91737982     0.82930
H2794       H  0.72246439  0.18025816  0.03119661     0.80540
H2795       H  0.85683034  0.09203183  0.03147479     0.43570
H2796       H  0.86330469  0.12310770  0.95786320     0.42540
H2797       H  0.81432877  0.19838520  0.91158155     0.42220
H2798       H  0.74230629  0.21455201  0.90368745     0.40160
H2799       H  0.68304783  0.20954587  0.97876107     0.43290
H2800       H  0.67401893  0.15589337  0.05389476     0.38070
H2801       H  0.70180325  0.07590639  0.05761052     0.44190
H2802       H  0.76471565  0.05202831  0.05855287     0.40600
H2803       H  0.74927448  0.23446484  0.92606957     0.45520
H2804       H  0.65595554  0.14638116  0.02618847     0.44250
H2805       H  0.79830127  0.04510626  0.06244504     0.44380
H2806       H  0.87546257  0.15048234  0.96172572     0.44740
O2807       O  0.82107425  0.37150530  0.06750220    -0.74130
O2808       O  0.77339250  0.36415293  0.07697154    -0.53040
C2809       C  0.80004263  0.37035189  0.08582636     0.79600
O2810       O  0.74842285  0.47192294  0.98518219    -0.58730
O2811       O  0.77249743  0.47224723  0.94008084    -0.51760
C2812       C  0.76019615  0.48365750  0.96001950     0.71610
O2813       O  0.71461194  0.40219068  0.06214743    -0.73290
O2814       O  0.71787063  0.35831384  0.06568281    -0.53850
C2815       C  0.70911056  0.37813017  0.07541954     0.77610
O2816       O  0.85061583  0.42787653  0.98762829    -0.58430
O2817       O  0.83020024  0.44727971  0.93986552    -0.51550
C2818       C  0.85075043  0.44435635  0.96184008     0.74210
Zr2819     Zr  0.81888854  0.39445956  0.01420468     2.54710
O2820       O  0.83994520  0.42234452  0.04907034    -0.79000
O2821       O  0.86433612  0.37013299  0.01565653    -0.92420
Zr2822     Zr  0.73946445  0.42788115  0.01409141     2.64680
O2823       O  0.75688249  0.45051661  0.05608116    -0.97370
O2824       O  0.69162456  0.44902165  0.00965060    -0.79430
O2825       O  0.77173688  0.39405492  0.03463497    -0.82790
O2826       O  0.78715179  0.42910166  0.99211384    -2.17500
O2827       O  0.80686797  0.36588427  0.90494387    -0.66180
O2828       O  0.80515564  0.41000337  0.89259426    -0.50750
C2829       C  0.81137070  0.38711397  0.88662724     0.72590
O2830       O  0.67873888  0.35799822  0.96777840    -0.59090
O2831       O  0.69876531  0.33731824  0.01534940    -0.51070
C2832       C  0.67827230  0.34084510  0.99288038     0.74390
O2833       O  0.70505898  0.43237455  0.90518999    -0.70480
O2834       O  0.75096204  0.44733624  0.89369862    -0.49160
C2835       C  0.72292538  0.44805616  0.88916266     0.75780
O2836       O  0.76724019  0.31135425  0.97689976    -0.65810
O2837       O  0.75746588  0.30990052  0.02794595    -0.53010
C2838       C  0.76026638  0.29919562  0.00378735     0.74160
Zr2839     Zr  0.78575942  0.35324916  0.95358736     2.77540
O2840       O  0.77062198  0.32471404  0.91683750    -0.96560
O2841       O  0.83322481  0.33151360  0.96458649    -0.77380
Zr2842     Zr  0.71025790  0.39267618  0.94604449     2.70070
O2843       O  0.69503752  0.37447231  0.89972206    -0.78630
O2844       O  0.66150843  0.40998800  0.95011970    -0.97710
Zr2845     Zr  0.74777237  0.35583860  0.02561261     2.21500
Zr2846     Zr  0.78252246  0.42688870  0.93704732     2.11130
O2847       O  0.75700059  0.38940544  0.92643520    -2.46400
O2848       O  0.73860089  0.35588325  0.97114864    -0.78420
O2849       O  0.81266885  0.39113265  0.96061796    -0.70620
O2850       O  0.71578113  0.39090848  0.00133151    -2.31580
O2851       O  0.79575101  0.35446814  0.00744621    -2.27780
O2852       O  0.73545756  0.42871714  0.95866058    -0.72380
H2853       H  0.79691350  0.44497896  0.99512076     0.79620
H2854       H  0.69659738  0.38921803  0.00978280     0.80710
H2855       H  0.75452381  0.38926811  0.90415834     0.82930
H2856       H  0.80679722  0.33956529  0.01837686     0.80540
H2857       H  0.67746295  0.43472611  0.01511626     0.43570
H2858       H  0.66499291  0.42820297  0.95256810     0.42540
H2859       H  0.70437260  0.35712509  0.90352762     0.42220
H2860       H  0.76193860  0.33620371  0.89787223     0.40160
H2861       H  0.84784326  0.34546684  0.95933422     0.43290
H2862       H  0.86030087  0.35285917  0.02814144     0.38070
H2863       H  0.82272272  0.43049063  0.05627034     0.44190
H2864       H  0.77410822  0.46056575  0.04783779     0.40600
H2865       H  0.78907445  0.31810119  0.91022239     0.45520
H2866       H  0.87831361  0.37827509  0.02938885     0.44250
H2867       H  0.74159605  0.46375892  0.05633063     0.44380
H2868       H  0.65178253  0.41121744  0.92881422     0.44740
O2869       O  0.97008242  0.99605886  0.06398190    -0.74130
O2870       O  0.50739527  0.02379409  0.07714719    -0.53040
C2871       C  0.98655517  0.00520339  0.08408543     0.79600
O2872       O  0.53329489  0.43479265  0.99682584    -0.58730
O2873       O  0.50616025  0.44238064  0.94961651    -0.51760
C2874       C  0.51929624  0.42729403  0.97339660     0.71610
O2875       O  0.57034746  0.48485336  0.06756691    -0.73290
O2876       O  0.56424317  0.02758124  0.06899799    -0.53850
C2877       C  0.57390025  0.00498177  0.08093674     0.77610
O2878       O  0.92926228  0.48099814  0.97771247    -0.58430
O2879       O  0.94956265  0.46908462  0.93574049    -0.51550
C2880       C  0.92819420  0.46991798  0.95347571     0.74210
Zr2881     Zr  0.96327079  0.00286239  0.00878344     2.54710
O2882       O  0.93428104  0.46834918  0.03815273    -0.79000
O2883       O  0.92300208  0.03160922  0.01432159    -0.92420
Zr2884     Zr  0.54482373  0.47372306  0.01765985     2.64680
O2885       O  0.53463521  0.44022952  0.06236585    -0.97370
O2886       O  0.59396921  0.45769147  0.01260424    -0.79430
O2887       O  0.51083301  0.00111237  0.03399298    -0.82790
O2888       O  0.49554770  0.47519578  0.99283585    -2.17500
O2889       O  0.94686749  0.04694897  0.92074357    -0.66180
O2890       O  0.96662624  0.02110663  0.89161188    -0.50750
C2891       C  0.95001175  0.04038254  0.89433208     0.72590
O2892       O  0.58797646  0.06540390  0.96345290    -0.59090
O2893       O  0.58024370  0.06423227  0.01513839    -0.51070
C2894       C  0.59542084  0.07059010  0.99043118     0.74390
O2895       O  0.56725998  0.00775821  0.90347764    -0.70480
O2896       O  0.52778157  0.48280163  0.89490989    -0.49160
C2897       C  0.55302196  0.99212084  0.88829445     0.75780
O2898       O  0.99841666  0.09756095  0.97725005    -0.65810
O2899       O  0.51771615  0.08725930  0.02570333    -0.53010
C2900       C  0.50566766  0.10327965  0.00249043     0.74160
Zr2901     Zr  0.98790412  0.06230829  0.94905056     2.77540
O2902       O  0.50534606  0.08746538  0.90083454    -0.96560
O2903       O  0.94872082  0.09430528  0.94365968    -0.77380
Zr2904     Zr  0.56510518  0.02784852  0.94991756     2.70070
O2905       O  0.58746507  0.05551023  0.90637209    -0.78630
O2906       O  0.61339242  0.00840217  0.96497408    -0.97710
Zr2907     Zr  0.53172997  0.04265631  0.02584967     2.21500
Zr2908     Zr  0.49693429  0.98919201  0.93782093     2.11130
O2909       O  0.51730932  0.03214493  0.92577635    -2.46400
O2910       O  0.53602896  0.05735604  0.97095381    -0.78420
O2911       O  0.96603483  0.02060194  0.95597758    -0.70620
O2912       O  0.56429540  0.01493309  0.00538798    -2.31580
O2913       O  0.98294071  0.04568354  0.00314966    -2.27780
O2914       O  0.54595146  0.48649758  0.96181010    -0.72380
H2915       H  0.98611240  0.45814391  0.99703895     0.79620
H2916       H  0.58399055  0.01520793  0.01496727     0.80710
H2917       H  0.51813288  0.03781972  0.90335723     0.82930
H2918       H  0.97148585  0.05694141  0.01311751     0.80540
H2919       H  0.60734678  0.46881351  0.02327696     0.43570
H2920       H  0.61465383  0.49542600  0.95059157     0.42540
H2921       H  0.57133509  0.06710714  0.89601610     0.42220
H2922       H  0.49135193  0.08394943  0.88369760     0.40160
H2923       H  0.93547350  0.08731239  0.96042073     0.43290
H2924       H  0.92387983  0.03244489  0.03701485     0.38070
H2925       H  0.94761477  0.45315333  0.04199091     0.44190
H2926       H  0.51457172  0.43409225  0.05736446     0.40600
H2927       H  0.99647792  0.10806732  0.90380235     0.45520
H2928       H  0.90501217  0.02148124  0.01091076     0.44250
H2929       H  0.54770952  0.42562873  0.06069660     0.44380
H2930       H  0.62744885  0.02244390  0.95790835     0.44740
O2931       O  0.56328749  0.23746108  0.07752037    -0.74130
O2932       O  0.51563570  0.23362990  0.08772786    -0.53040
C2933       C  0.54277036  0.23761348  0.09623432     0.79600
O2934       O  0.99504148  0.34623683  0.98674703    -0.58730
O2935       O  0.52426926  0.34350031  0.94457268    -0.51760
C2936       C  0.00685195  0.35678594  0.96107446     0.71610
O2937       O  0.96593469  0.28045834  0.06971401    -0.73290
O2938       O  0.95498056  0.23929573  0.06408671    -0.53850
C2939       C  0.95550376  0.25740158  0.07966811     0.77610
O2940       O  0.60044393  0.29541582  0.00279147    -0.58430
O2941       O  0.58232511  0.31475803  0.95405685    -0.51550
C2942       C  0.60248065  0.31112862  0.97673145     0.74210
Zr2943     Zr  0.56454046  0.26587286  0.02732649     2.54710
O2944       O  0.57945585  0.29349501  0.06509250    -0.79000
O2945       O  0.61176700  0.24363333  0.03429278    -0.92420
Zr2946     Zr  0.98510192  0.30321272  0.01828268     2.64680
O2947       O  0.00012294  0.33064924  0.05621473    -0.97370
O2948       O  0.93593396  0.32201933  0.01224499    -0.79430
O2949       O  0.51692953  0.26834711  0.04534994    -0.82790
O2950       O  0.53656425  0.30205329  0.00139536    -2.17500
O2951       O  0.55308931  0.23561960  0.91630231    -0.66180
O2952       O  0.55428743  0.27976758  0.90379541    -0.50750
C2953       C  0.55869603  0.25664706  0.89794797     0.72590
O2954       O  0.92237526  0.23180871  0.98714127    -0.59090
O2955       O  0.94530623  0.20916574  0.03203060    -0.51070
C2956       C  0.92268122  0.21512478  0.01296354     0.74390
O2957       O  0.94897795  0.29711516  0.91166159    -0.70480
O2958       O  0.50212191  0.31815230  0.90263980    -0.49160
C2959       C  0.96365644  0.31595705  0.89664609     0.75780
O2960       O  0.52119882  0.18189845  0.99570644    -0.65810
O2961       O  0.00510092  0.18385325  0.04305977    -0.53010
C2962       C  0.51127505  0.17145218  0.02216671     0.74160
Zr2963     Zr  0.53237738  0.22403007  0.96560417     2.77540
O2964       O  0.51245975  0.19511717  0.93138479    -0.96560
O2965       O  0.58043311  0.20321274  0.97151309    -0.77380
Zr2966     Zr  0.95594308  0.26080357  0.95566108     2.70070
O2967       O  0.94401871  0.23502975  0.91514409    -0.78630
O2968       O  0.90531903  0.27625934  0.95169858    -0.97710
Zr2969     Zr  0.99285706  0.22965382  0.03527186     2.21500
Zr2970     Zr  0.53259758  0.29746180  0.94719802     2.11130
O2971       O  0.50534071  0.26050845  0.93698904    -2.46400
O2972       O  0.98477747  0.22493164  0.98198189    -0.78420
O2973       O  0.56023592  0.26110819  0.97382834    -0.70620
O2974       O  0.96206217  0.26489628  0.00868738    -2.31580
O2975       O  0.54040571  0.22704401  0.01901641    -2.27780
O2976       O  0.98008862  0.29916235  0.96440070    -0.72380
H2977       H  0.54707311  0.31771602  0.00387127     0.79620
H2978       H  0.94249252  0.26518109  0.01594119     0.80710
H2979       H  0.50327259  0.26000867  0.91478550     0.82930
H2980       H  0.55071312  0.21204606  0.03081371     0.80540
H2981       H  0.92393039  0.30942496  0.02594694     0.43570
H2982       H  0.90686606  0.29483783  0.95325981     0.42540
H2983       H  0.94687308  0.21686091  0.92602853     0.42220
H2984       H  0.50403580  0.20672053  0.91238006     0.40160
H2985       H  0.59416177  0.21626889  0.97807341     0.43290
H2986       H  0.60683879  0.22498153  0.03937325     0.38070
H2987       H  0.56078890  0.29869716  0.07275884     0.44190
H2988       H  0.52200913  0.33916584  0.05056576     0.40600
H2989       H  0.52988045  0.18717059  0.92430217     0.45520
H2990       H  0.62085142  0.24777136  0.05416751     0.44250
H2991       H  0.98592966  0.34522489  0.05194787     0.44380
H2992       H  0.89811018  0.27613122  0.92968536     0.44740
O2993       O  0.83707248  0.06908654  0.81915058    -0.74130
O2994       O  0.84149321  0.11263436  0.81661644    -0.53040
C2995       C  0.83183360  0.09054089  0.82935090     0.79600
O2996       O  0.97778987  0.06372196  0.74337705    -0.58730
O2997       O  0.95478491  0.04935961  0.70171254    -0.51760
C2998       C  0.97721876  0.05088115  0.72054923     0.71610
O2999       O  0.94439061  0.10267830  0.81923965    -0.73290
O3000       O  0.89647903  0.10788212  0.82738584    -0.53850
C3001       C  0.92279671  0.09989212  0.83691637     0.77610
O3002       O  0.87107155  0.01596874  0.75459384    -0.58430
O3003       O  0.90106378  0.02366861  0.71334331    -0.51550
C3004       C  0.88642734  0.00881708  0.73390687     0.74210
Zr3005     Zr  0.86358618  0.05498824  0.77455193     2.54710
O3006       O  0.88102901  0.02412503  0.82077835    -0.79000
O3007       O  0.81557716  0.03431646  0.77202399    -0.92420
Zr3008     Zr  0.94468025  0.08935797  0.76904151     2.64680
O3009       O  0.97366864  0.05785432  0.80675335    -0.97370
O3010       O  0.98675245  0.11852507  0.76422797    -0.79430
O3011       O  0.89704130  0.08471942  0.78938204    -0.82790
O3012       O  0.91230538  0.05772344  0.75397989    -2.17500
O3013       O  0.83310453  0.07005957  0.66341992    -0.66180
O3014       O  0.87765041  0.05288941  0.65756491    -0.50750
C3015       C  0.84968103  0.05466616  0.65160052     0.72590
O3016       O  0.89837475  0.18150828  0.72401673    -0.59090
O3017       O  0.88395307  0.16951976  0.77387231    -0.51070
C3018       C  0.89068676  0.18671873  0.75046308     0.74390
O3019       O  0.94459661  0.13552342  0.66464093    -0.70480
O3020       O  0.93992687  0.09346947  0.65759489    -0.49160
C3021       C  0.95118923  0.11661917  0.65156629     0.75780
O3022       O  0.80537262  0.13353370  0.71751546    -0.65810
O3023       O  0.82582865  0.14620243  0.76197924    -0.53010
C3024       C  0.80536250  0.14628944  0.74024644     0.74160
Zr3025     Zr  0.83636382  0.10360593  0.69809976     2.77540
O3026       O  0.82417314  0.13252613  0.64843391    -0.96560
O3027       O  0.78598371  0.08767908  0.69762392    -0.77380
Zr3028     Zr  0.91070121  0.14327752  0.70131608     2.70070
O3029       O  0.88997565  0.17096871  0.65394617    -0.78630
O3030       O  0.95259211  0.17237098  0.70316092    -0.97710
Zr3031     Zr  0.87250089  0.12457920  0.77467158     2.21500
Zr3032     Zr  0.90761938  0.06996264  0.69776048     2.11130
O3033       O  0.88359510  0.11057591  0.67866410    -2.46400
O3034       O  0.86355030  0.13643073  0.71924338    -0.78420
O3035       O  0.85998416  0.06434378  0.71831577    -0.70620
O3036       O  0.92058673  0.13057867  0.75608970    -2.31580
O3037       O  0.84026598  0.09441129  0.75436198    -2.27780
O3038       O  0.93662855  0.10312883  0.71505575    -0.72380
H3039       H  0.92224821  0.04126398  0.76032073     0.79620
H3040       H  0.93153070  0.14360661  0.76510972     0.80710
H3041       H  0.88256793  0.11452111  0.65595774     0.82930
H3042       H  0.82097716  0.09439906  0.76242763     0.80540
H3043       H  0.98542714  0.12864240  0.78130968     0.43570
H3044       H  0.97005313  0.16089346  0.70752857     0.42540
H3045       H  0.86956046  0.17434464  0.65875613     0.42220
H3046       H  0.82824184  0.12228442  0.63207321     0.40160
H3047       H  0.78705434  0.07058925  0.71175686     0.43290
H3048       H  0.80124662  0.04815802  0.77307272     0.38070
H3049       H  0.88171394  0.03407361  0.83818456     0.44190
H3050       H  0.96968311  0.04085606  0.80043917     0.40600
H3051       H  0.80246749  0.13398675  0.64735179     0.45520
H3052       H  0.81476756  0.02242011  0.79247319     0.44250
H3053       H  0.99447085  0.06169614  0.80233249     0.44380
H3054       H  0.95410577  0.18152538  0.68124262     0.44740
O3055       O  0.85071172  0.33335361  0.81449479    -0.74130
O3056       O  0.85576110  0.37739955  0.80699626    -0.53040
C3057       C  0.84616049  0.35624780  0.82188746     0.79600
O3058       O  0.98865426  0.32005833  0.74324536    -0.58730
O3059       O  0.96674813  0.30339625  0.70252600    -0.51760
C3060       C  0.98875561  0.30663757  0.72132206     0.71610
O3061       O  0.95990535  0.37133512  0.80578066    -0.73290
O3062       O  0.91334595  0.37325286  0.81863004    -0.53850
C3063       C  0.94113060  0.36957965  0.82639581     0.77610
O3064       O  0.88290051  0.26971224  0.75567925    -0.58430
O3065       O  0.90917881  0.27573558  0.71141438    -0.51550
C3066       C  0.89574576  0.26146484  0.73335217     0.74210
Zr3067     Zr  0.87460056  0.31180401  0.77303801     2.54710
O3068       O  0.88939075  0.28266009  0.82170302    -0.79000
O3069       O  0.82584386  0.29231656  0.77334055    -0.92420
Zr3070     Zr  0.95477357  0.34408743  0.76709180     2.64680
O3071       O  0.96757423  0.30987885  0.81174207    -0.97370
O3072       O  0.00430317  0.36134330  0.77201485    -0.79430
O3073       O  0.90768564  0.34268662  0.78796171    -0.82790
O3074       O  0.92264782  0.31204541  0.75251153    -2.17500
O3075       O  0.84335961  0.32225703  0.66314877    -0.66180
O3076       O  0.88630176  0.30138077  0.65961616    -0.50750
C3077       C  0.85851309  0.30465332  0.65336658     0.72590
O3078       O  0.91896973  0.43414053  0.70750507    -0.59090
O3079       O  0.89987053  0.42772422  0.75571842    -0.51070
C3080       C  0.90958173  0.44201416  0.73130653     0.74390
O3081       O  0.96447845  0.37444008  0.66763930    -0.70480
O3082       O  0.94054901  0.34331216  0.64739431    -0.49160
C3083       C  0.95746015  0.36348092  0.64448612     0.75780
O3084       O  0.81554674  0.38875757  0.71270079    -0.65810
O3085       O  0.83811893  0.40444300  0.75406833    -0.53010
C3086       C  0.81613144  0.40292357  0.73423242     0.74160
Zr3087     Zr  0.84809719  0.35881232  0.69349053     2.77540
O3088       O  0.83984415  0.38783979  0.64314591    -0.96560
O3089       O  0.79668549  0.34630649  0.68836859    -0.77380
Zr3090     Zr  0.92651852  0.39339762  0.69151494     2.70070
O3091       O  0.91014037  0.41519580  0.63892296    -0.78630
O3092       O  0.96720989  0.42407117  0.68538342    -0.97710
Zr3093     Zr  0.88607796  0.38314843  0.76549985     2.21500
Zr3094     Zr  0.91790810  0.32125234  0.69593813     2.11130
O3095       O  0.89512828  0.36165612  0.67299270    -2.46400
O3096       O  0.87864226  0.39185749  0.70974328    -0.78420
O3097       O  0.87032128  0.31927228  0.71682157    -0.70620
O3098       O  0.93402162  0.38557190  0.74687960    -2.31580
O3099       O  0.85293073  0.35162044  0.74947473    -2.27780
O3100       O  0.94969900  0.35325267  0.71192511    -0.72380
H3101       H  0.93204300  0.29543462  0.75973384     0.79620
H3102       H  0.94581528  0.39911210  0.75383624     0.80710
H3103       H  0.89314499  0.36421116  0.65031196     0.82930
H3104       H  0.83380335  0.35267331  0.75757918     0.80540
H3105       H  0.00422145  0.37737882  0.75595493     0.43570
H3106       H  0.98454737  0.41420737  0.69601600     0.42540
H3107       H  0.89560145  0.42812645  0.64244357     0.42220
H3108       H  0.83693269  0.37616601  0.62761438     0.40160
H3109       H  0.79400664  0.33285509  0.70717647     0.43290
H3110       H  0.81206438  0.30719009  0.76892342     0.38070
H3111       H  0.91082608  0.28548122  0.82464622     0.44190
H3112       H  0.97320849  0.29488965  0.80237512     0.40600
H3113       H  0.82016926  0.39542920  0.64404884     0.45520
H3114       H  0.82349241  0.28468936  0.79567074     0.44250
H3115       H  0.98628119  0.31570773  0.82109669     0.44380
H3116       H  0.97088331  0.42694850  0.66273904     0.44740
O3117       O  0.59266670  0.20371739  0.82340917    -0.74130
O3118       O  0.59847006  0.24751715  0.81654779    -0.53040
C3119       C  0.58875020  0.22637237  0.83128076     0.79600
O3120       O  0.72986521  0.18859149  0.74861112    -0.58730
O3121       O  0.70603132  0.17074112  0.71003736    -0.51760
C3122       C  0.72873951  0.17421435  0.72753612     0.71610
O3123       O  0.69947925  0.22478855  0.82595985    -0.73290
O3124       O  0.65205400  0.23516798  0.83046666    -0.53850
C3125       C  0.67723065  0.22529089  0.84224038     0.77610
O3126       O  0.61998879  0.14246659  0.76588280    -0.58430
O3127       O  0.64832070  0.14677752  0.72333813    -0.51550
C3128       C  0.63345827  0.13337629  0.74520365     0.74210
Zr3129     Zr  0.61516228  0.18405981  0.78041311     2.54710
O3130       O  0.62864408  0.15441554  0.82907490    -0.79000
O3131       O  0.56505997  0.16752574  0.77825760    -0.92420
Zr3132     Zr  0.69823394  0.21343105  0.77493060     2.64680
O3133       O  0.72334015  0.17876562  0.81192864    -0.97370
O3134       O  0.74226316  0.24029700  0.77353463    -0.79430
O3135       O  0.65061029  0.21233748  0.79418095    -0.82790
O3136       O  0.66388831  0.18278625  0.76075519    -2.17500
O3137       O  0.58677890  0.19643227  0.66772786    -0.66180
O3138       O  0.62969309  0.17556037  0.66441492    -0.50750
C3139       C  0.60209691  0.17931080  0.65726620     0.72590
O3140       O  0.65650409  0.30571623  0.72257500    -0.59090
O3141       O  0.64600690  0.29648171  0.77392109    -0.51070
C3142       C  0.65078140  0.31234418  0.74880632     0.74390
O3143       O  0.70434173  0.25475587  0.67155960    -0.70480
O3144       O  0.69226812  0.21433699  0.66213812    -0.49160
C3145       C  0.70662813  0.23623543  0.65663312     0.75780
O3146       O  0.56332118  0.26356657  0.71831749    -0.65810
O3147       O  0.58447843  0.27718774  0.76183943    -0.53010
C3148       C  0.56393900  0.27735176  0.74006054     0.74160
Zr3149     Zr  0.59199456  0.23101276  0.70102294     2.77540
O3150       O  0.58278255  0.25958377  0.65048726    -0.96560
O3151       O  0.54044856  0.21837469  0.69964807    -0.77380
Zr3152     Zr  0.66914311  0.26613265  0.70396437     2.70070
O3153       O  0.65317166  0.29270119  0.65382660    -0.78630
O3154       O  0.71215278  0.29388344  0.70669003    -0.97710
Zr3155     Zr  0.62987474  0.25307808  0.77622552     2.21500
Zr3156     Zr  0.66001491  0.19253188  0.70432145     2.11130
O3157       O  0.63963081  0.23416382  0.68260978    -2.46400
O3158       O  0.62152762  0.26318242  0.72069046    -0.78420
O3159       O  0.61210866  0.19085840  0.72411889    -0.70620
O3160       O  0.67823982  0.25583671  0.75894513    -2.31580
O3161       O  0.59512510  0.22412486  0.75728212    -2.27780
O3162       O  0.69137877  0.22472484  0.72054055    -0.72380
H3163       H  0.67254443  0.16588736  0.76812548     0.79620
H3164       H  0.69017646  0.26865060  0.76727404     0.80710
H3165       H  0.63897667  0.23729709  0.65990328     0.82930
H3166       H  0.57591847  0.22574663  0.76498847     0.80540
H3167       H  0.74058340  0.25052587  0.79045430     0.43570
H3168       H  0.72893377  0.28183567  0.71309056     0.42540
H3169       H  0.63354537  0.29921445  0.65732077     0.42220
H3170       H  0.58518959  0.24840953  0.63466400     0.40160
H3171       H  0.53964553  0.20261453  0.71603937     0.43290
H3172       H  0.55246605  0.18229265  0.78045423     0.38070
H3173       H  0.64987021  0.15109165  0.82793537     0.44190
H3174       H  0.71879336  0.16259644  0.80381042     0.40600
H3175       H  0.56141213  0.26321612  0.64921530     0.45520
H3176       H  0.56371528  0.15519458  0.79830680     0.44250
H3177       H  0.74459432  0.18172655  0.80919592     0.44380
H3178       H  0.71524838  0.30187828  0.68463172     0.44740
O3179       O  0.59291881  0.44475982  0.81023436    -0.74130
O3180       O  0.59316588  0.48881915  0.80481963    -0.53040
C3181       C  0.58568926  0.46630588  0.81881535     0.79600
O3182       O  0.73570956  0.44390967  0.74471719    -0.58730
O3183       O  0.71532694  0.42829694  0.70243630    -0.51760
C3184       C  0.73684141  0.43076201  0.72234208     0.71610
O3185       O  0.69401699  0.49569124  0.80467320    -0.73290
O3186       O  0.64707975  0.99706691  0.81647716    -0.53850
C3187       C  0.67435800  0.99197623  0.82414233     0.77610
O3188       O  0.63327608  0.39212840  0.74769222    -0.58430
O3189       O  0.66028481  0.40056898  0.70408930    -0.51550
C3190       C  0.64745709  0.38532420  0.72553972     0.74210
Zr3191     Zr  0.62047098  0.43154990  0.76684308     2.54710
O3192       O  0.63704412  0.40163445  0.81423896    -0.79000
O3193       O  0.57363417  0.40924791  0.76256826    -0.92420
Zr3194     Zr  0.69822601  0.46806018  0.76608306     2.64680
O3195       O  0.71139375  0.43489110  0.81172338    -0.97370
O3196       O  0.74575824  0.48872260  0.77236968    -0.79430
O3197       O  0.64977907  0.46394703  0.78393069    -0.82790
O3198       O  0.66943114  0.43514215  0.74864214    -2.17500
O3199       O  0.59086251  0.44487194  0.65850150    -0.66180
O3200       O  0.63582461  0.42772999  0.65367516    -0.50750
C3201       C  0.60776405  0.42914589  0.64785663     0.72590
O3202       O  0.65413201  0.05771539  0.70619128    -0.59090
O3203       O  0.63440155  0.04987082  0.75404615    -0.51070
C3204       C  0.64450197  0.06502196  0.73018883     0.74390
O3205       O  0.70080898  0.00933428  0.65704986    -0.70480
O3206       O  0.69720560  0.46810856  0.65033081    -0.49160
C3207       C  0.70859912  0.49112488  0.64455924     0.75780
O3208       O  0.55579904  0.00760199  0.70771021    -0.65810
O3209       O  0.57603514  0.02309771  0.75038919    -0.53010
C3210       C  0.55509710  0.02141567  0.72963868     0.74160
Zr3211     Zr  0.59221132  0.48005748  0.68980208     2.77540
O3212       O  0.58089946  0.00692076  0.63827964    -0.96560
O3213       O  0.54221797  0.46372920  0.68516010    -0.77380
Zr3214     Zr  0.66510527  0.01771938  0.69056651     2.70070
O3215       O  0.64622939  0.04290961  0.64064880    -0.78630
O3216       O  0.70657399  0.04722624  0.69315030    -0.97710
Zr3217     Zr  0.62374712  0.00344869  0.76297365     2.21500
Zr3218     Zr  0.66615891  0.44643367  0.69239190     2.11130
O3219       O  0.64012189  0.48541882  0.67062226    -2.46400
O3220       O  0.61699061  0.01317853  0.70729257    -0.78420
O3221       O  0.61767222  0.44144167  0.71106588    -0.70620
O3222       O  0.67237557  0.00834447  0.74570111    -2.31580
O3223       O  0.59570785  0.47074244  0.74562130    -2.27780
O3224       O  0.69390678  0.47958194  0.71085582    -0.72380
H3225       H  0.67983229  0.41895077  0.75535796     0.79620
H3226       H  0.68264666  0.02262260  0.75282475     0.80710
H3227       H  0.63794770  0.98769229  0.64683132     0.82930
H3228       H  0.57617490  0.47014251  0.75318154     0.80540
H3229       H  0.74247526  0.00630964  0.75648433     0.43570
H3230       H  0.72407371  0.03592632  0.69894906     0.42540
H3231       H  0.62655689  0.04881967  0.64492809     0.42220
H3232       H  0.58251207  0.99543493  0.62264838     0.40160
H3233       H  0.54059096  0.45031721  0.70422989     0.43290
H3234       H  0.55853508  0.42260545  0.76301007     0.38070
H3235       H  0.65133491  0.41176016  0.82528453     0.44190
H3236       H  0.70899958  0.41820150  0.80422536     0.40600
H3237       H  0.55964410  0.01090380  0.63758312     0.45520
H3238       H  0.57260557  0.39732403  0.78297010     0.44250
H3239       H  0.73292580  0.43674304  0.81531073     0.44380
H3240       H  0.70902387  0.05582398  0.67116869     0.44740
O3241       O  0.73914177  0.02738359  0.40008701    -0.74130
O3242       O  0.71963568  0.48854526  0.41198791    -0.53040
C3243       C  0.71735692  0.01240233  0.39826667     0.79600
O3244       O  0.86242109  0.03445915  0.47696371    -0.58730
O3245       O  0.84315991  0.05379725  0.51441034    -0.51760
C3246       C  0.86395136  0.04947010  0.49733977     0.71610
O3247       O  0.82688968  0.47769449  0.41727346    -0.73290
O3248       O  0.78445078  0.45484736  0.41388111    -0.53850
C3249       C  0.81071903  0.46079736  0.40571191     0.77610
O3250       O  0.76188948  0.08695529  0.45963922    -0.58430
O3251       O  0.78250986  0.08126428  0.50952443    -0.51550
C3252       C  0.77199356  0.09542164  0.48425087     0.74210
Zr3253     Zr  0.74955443  0.04462231  0.44667411     2.54710
O3254       O  0.75009134  0.07911018  0.40085227    -0.79000
O3255       O  0.69911413  0.05723301  0.45297750    -0.92420
Zr3256     Zr  0.82640328  0.00797891  0.45497212     2.64680
O3257       O  0.83899944  0.03785121  0.40786440    -0.97370
O3258       O  0.87542105  0.48806862  0.45677235    -0.79430
O3259       O  0.77792160  0.01048672  0.43251524    -0.82790
O3260       O  0.79880798  0.04333073  0.46659461    -2.17500
O3261       O  0.72311793  0.02698403  0.55606203    -0.66180
O3262       O  0.76954269  0.03757803  0.57013375    -0.50750
C3263       C  0.74310482  0.03086044  0.57655982     0.72590
O3264       O  0.79358189  0.42311726  0.52592082    -0.59090
O3265       O  0.76712326  0.42560953  0.47865306    -0.51070
C3266       C  0.77996622  0.41306819  0.50419305     0.74390
O3267       O  0.82749739  0.48754827  0.58150598    -0.70480
O3268       O  0.82307985  0.03171633  0.56867166    -0.49160
C3269       C  0.83084908  0.51104409  0.58793632     0.75780
O3270       O  0.69335766  0.46579365  0.50101720    -0.65810
O3271       O  0.71198852  0.44752472  0.46263062    -0.53010
C3272       C  0.69198845  0.45028678  0.48127686     0.74160
Zr3273     Zr  0.72576047  0.49642213  0.52068879     2.77540
O3274       O  0.70784818  0.46325465  0.56198685    -0.96560
O3275       O  0.67585392  0.01494386  0.51681632    -0.77380
Zr3276     Zr  0.80677110  0.46592888  0.53545317     2.70070
O3277       O  0.80010521  0.43587656  0.58429341    -0.78630
O3278       O  0.85674557  0.45005366  0.53507746    -0.97710
Zr3279     Zr  0.75761317  0.47037230  0.45441239     2.21500
Zr3280     Zr  0.79432110  0.03644308  0.52188056     2.11130
O3281       O  0.77377292  0.49636891  0.54528205    -2.46400
O3282       O  0.75795787  0.46453201  0.51075923    -0.78420
O3283       O  0.74510106  0.03781048  0.50119596    -0.70620
O3284       O  0.80663705  0.46928621  0.47911583    -2.31580
O3285       O  0.72682974  0.00432672  0.46652378    -2.27780
O3286       O  0.82730250  0.50452116  0.51053398    -0.72380
H3287       H  0.80854748  0.05953488  0.45928056     0.79620
H3288       H  0.81756846  0.45487585  0.47449595     0.80710
H3289       H  0.77304385  0.49297498  0.56783430     0.82930
H3290       H  0.70671135  0.00398477  0.45822291     0.80540
H3291       H  0.87359818  0.47128488  0.47121351     0.43570
H3292       H  0.86873469  0.46051629  0.54802159     0.42540
H3293       H  0.78006381  0.43959939  0.58994458     0.42220
H3294       H  0.72552282  0.45558741  0.57452492     0.40160
H3295       H  0.67853647  0.03368569  0.50894462     0.43290
H3296       H  0.68589898  0.04557929  0.44301032     0.38070
H3297       H  0.77049747  0.07911940  0.39420245     0.44190
H3298       H  0.83951151  0.05515080  0.41401041     0.40600
H3299       H  0.69716806  0.47258989  0.57576179     0.45520
H3300       H  0.69634215  0.07463587  0.43982750     0.44250
H3301       H  0.85984068  0.03393387  0.40534667     0.44380
H3302       H  0.85660212  0.43246432  0.54803845     0.44740
O3303       O  0.71390906  0.28110644  0.41834885    -0.74130
O3304       O  0.71837299  0.23803930  0.41721351    -0.53040
C3305       C  0.70602327  0.26079037  0.40805450     0.79600
O3306       O  0.86110767  0.28555437  0.48198014    -0.58730
O3307       O  0.84250922  0.30420219  0.52042092    -0.51760
C3308       C  0.86283296  0.30064517  0.50225856     0.71610
O3309       O  0.82664271  0.22575248  0.42581985    -0.73290
O3310       O  0.78386120  0.20343726  0.42182564    -0.53850
C3311       C  0.81060894  0.20863628  0.41464804     0.77610
O3312       O  0.75912766  0.33506732  0.46627783    -0.58430
O3313       O  0.78048367  0.33062152  0.51583096    -0.51550
C3314       C  0.76926960  0.34416981  0.49021820     0.74210
Zr3315     Zr  0.74928699  0.29265606  0.45471869     2.54710
O3316       O  0.76339665  0.31588074  0.40400412    -0.79000
O3317       O  0.70523635  0.31873374  0.45433307    -0.92420
Zr3318     Zr  0.82591409  0.25775367  0.46114014     2.64680
O3319       O  0.83688373  0.28694944  0.41293345    -0.97370
O3320       O  0.87470436  0.23868612  0.46343991    -0.79430
O3321       O  0.77730503  0.25985211  0.43812232    -0.82790
O3322       O  0.79824759  0.29220927  0.47435775    -2.17500
O3323       O  0.72371516  0.27012351  0.56871537    -0.66180
O3324       O  0.76984522  0.28342749  0.58008304    -0.50750
C3325       C  0.74422549  0.27474910  0.58818392     0.72590
O3326       O  0.79617968  0.17163868  0.52785509    -0.59090
O3327       O  0.76689358  0.17534908  0.48212877    -0.51070
C3328       C  0.78172507  0.16226722  0.50583172     0.74390
O3329       O  0.83202777  0.23667073  0.58569963    -0.70480
O3330       O  0.82511853  0.28045963  0.57459349    -0.49160
C3331       C  0.83513585  0.26017686  0.59241109     0.75780
O3332       O  0.69146202  0.21587845  0.50993219    -0.65810
O3333       O  0.70995539  0.19755136  0.47145835    -0.53010
C3334       C  0.68993194  0.20050591  0.49011939     0.74160
Zr3335     Zr  0.72688905  0.24348205  0.53011143     2.77540
O3336       O  0.71670208  0.20456182  0.56787247    -0.96560
O3337       O  0.67777914  0.26054171  0.53259472    -0.77380
Zr3338     Zr  0.80780724  0.21422749  0.54146162     2.70070
O3339       O  0.79982409  0.18485854  0.59055211    -0.78630
O3340       O  0.85757908  0.19781599  0.54125193    -0.97710
Zr3341     Zr  0.75599819  0.21992150  0.46113456     2.21500
Zr3342     Zr  0.79408104  0.28547940  0.52973953     2.11130
O3343       O  0.77523949  0.24427574  0.55325969    -2.46400
O3344       O  0.75861269  0.21250668  0.51771187    -0.78420
O3345       O  0.74487027  0.28546945  0.50949354    -0.70620
O3346       O  0.80549580  0.21872943  0.48510299    -2.31580
O3347       O  0.72699500  0.25272769  0.47542332    -2.27780
O3348       O  0.82643613  0.25384152  0.51689016    -0.72380
H3349       H  0.80745080  0.30862905  0.46682053     0.79620
H3350       H  0.81642787  0.20450005  0.48005870     0.80710
H3351       H  0.77547296  0.24013834  0.57587878     0.82930
H3352       H  0.70664416  0.25228439  0.46797587     0.80540
H3353       H  0.87362833  0.22231671  0.47880211     0.43570
H3354       H  0.87028712  0.21074902  0.54959913     0.42540
H3355       H  0.78088598  0.17621140  0.58668062     0.42220
H3356       H  0.73429002  0.20144058  0.58261250     0.40160
H3357       H  0.67588688  0.27524194  0.51470748     0.43290
H3358       H  0.68911793  0.30606352  0.45882842     0.38070
H3359       H  0.78491815  0.31824871  0.40679769     0.44190
H3360       H  0.84157481  0.30371603  0.41955233     0.40600
H3361       H  0.70050710  0.20914501  0.58007091     0.45520
H3362       H  0.70118284  0.32706857  0.43210232     0.44250
H3363       H  0.85596532  0.28070329  0.40739608     0.44380
H3364       H  0.85860875  0.18231905  0.55813451     0.44740
O3365       O  0.96492448  0.15787896  0.41565547    -0.74130
O3366       O  0.96620273  0.11403047  0.41825550    -0.53040
C3367       C  0.95465625  0.13700416  0.40839124     0.79600
O3368       O  0.61156488  0.15952711  0.48390494    -0.58730
O3369       O  0.59214728  0.17879195  0.52136802    -0.51760
C3370       C  0.61298169  0.17464635  0.50407663     0.71610
O3371       O  0.57730001  0.10207625  0.42489796    -0.73290
O3372       O  0.53444113  0.08019409  0.41966316    -0.53850
C3373       C  0.56120013  0.08552122  0.41275185     0.77610
O3374       O  0.50959710  0.21139871  0.46547434    -0.58430
O3375       O  0.52998365  0.20611800  0.51546629    -0.51550
C3376       C  0.51906548  0.21996467  0.49006164     0.74210
Zr3377     Zr  0.00027459  0.16947324  0.45218086     2.54710
O3378       O  0.51652952  0.19481996  0.40322662    -0.79000
O3379       O  0.95639113  0.19600831  0.45064567    -0.92420
Zr3380     Zr  0.57643052  0.13279860  0.46178930     2.64680
O3381       O  0.58965438  0.16251488  0.41481601    -0.97370
O3382       O  0.62461900  0.11243739  0.46538998    -0.79430
O3383       O  0.52870454  0.13565751  0.43692289    -0.82790
O3384       O  0.54911624  0.16799755  0.47375715    -2.17500
O3385       O  0.97050763  0.14818014  0.56461395    -0.66180
O3386       O  0.51607289  0.16113125  0.57699693    -0.50750
C3387       C  0.99038297  0.15368529  0.58430186     0.72590
O3388       O  0.54329649  0.04776819  0.52982759    -0.59090
O3389       O  0.51674949  0.05108395  0.48244163    -0.51070
C3390       C  0.53003327  0.03812789  0.50746717     0.74390
O3391       O  0.57687532  0.11254569  0.58728928    -0.70480
O3392       O  0.57121202  0.15640188  0.57564726    -0.49160
C3393       C  0.58002860  0.13601002  0.59411038     0.75780
O3394       O  0.94247562  0.08994400  0.50693135    -0.65810
O3395       O  0.96098119  0.07288758  0.46747913    -0.53010
C3396       C  0.94116870  0.07497178  0.48653433     0.74160
Zr3397     Zr  0.97436871  0.12118947  0.52642451     2.77540
O3398       O  0.95302453  0.08887972  0.56628427    -0.96560
O3399       O  0.92682897  0.14283824  0.51520253    -0.77380
Zr3400     Zr  0.55464207  0.09048741  0.54179182     2.70070
O3401       O  0.54444248  0.06108778  0.59012429    -0.78630
O3402       O  0.60447814  0.07373056  0.54360570    -0.97710
Zr3403     Zr  0.50646206  0.09593380  0.45930509     2.21500
Zr3404     Zr  0.54283226  0.16127732  0.52881441     2.11130
O3405       O  0.52156705  0.12096308  0.55147259    -2.46400
O3406       O  0.00635471  0.08935504  0.51601713    -0.78420
O3407       O  0.99429368  0.16258237  0.50668995    -0.70620
O3408       O  0.55497305  0.09414331  0.48544167    -2.31580
O3409       O  0.97730645  0.12966748  0.47251233    -2.27780
O3410       O  0.57521876  0.12918015  0.51751120    -0.72380
H3411       H  0.55882668  0.18426324  0.46666946     0.79620
H3412       H  0.56599616  0.07976361  0.48089095     0.80710
H3413       H  0.52054849  0.11725043  0.57400475     0.82930
H3414       H  0.95680518  0.12937506  0.46569196     0.80540
H3415       H  0.62256762  0.09585074  0.48014998     0.43570
H3416       H  0.61647885  0.08490891  0.55559916     0.42540
H3417       H  0.52279118  0.06162470  0.59093032     0.42220
H3418       H  0.96981671  0.08085622  0.58008079     0.40160
H3419       H  0.93145295  0.16158006  0.51193308     0.43290
H3420       H  0.94003589  0.18353704  0.45477267     0.38070
H3421       H  0.53791863  0.19155140  0.40366855     0.44190
H3422       H  0.59315042  0.17932532  0.42177673     0.40600
H3423       H  0.94182049  0.09871296  0.57911034     0.45520
H3424       H  0.95286305  0.20437049  0.42835191     0.44250
H3425       H  0.60943563  0.15672930  0.41071875     0.44380
H3426       H  0.60399512  0.05674029  0.55788933     0.44740
O3427       O  0.96591168  0.40504314  0.41288063    -0.74130
O3428       O  0.96867084  0.36150474  0.41420515    -0.53040
C3429       C  0.95718607  0.38437293  0.40390170     0.79600
O3430       O  0.61296758  0.40887036  0.47578429    -0.58730
O3431       O  0.59488554  0.42927177  0.51304511    -0.51760
C3432       C  0.61506934  0.42457213  0.49535152     0.71610
O3433       O  0.57597138  0.34835471  0.42190283    -0.73290
O3434       O  0.53283783  0.32629330  0.41968786    -0.53850
C3435       C  0.55944746  0.33103817  0.41174065     0.77610
O3436       O  0.50960908  0.46082958  0.46122054    -0.58430
O3437       O  0.53372252  0.45666355  0.50937510    -0.51550
C3438       C  0.52098175  0.47012766  0.48460818     0.74210
Zr3439     Zr  0.50067647  0.41779579  0.44982322     2.54710
O3440       O  0.51611792  0.44112683  0.39966675    -0.79000
O3441       O  0.95596055  0.44406669  0.44596510    -0.92420
Zr3442     Zr  0.57660538  0.38139222  0.45606365     2.64680
O3443       O  0.58816638  0.40906203  0.40697032    -0.97370
O3444       O  0.62491196  0.36132424  0.45871690    -0.79430
O3445       O  0.52765523  0.38389464  0.43401160    -0.82790
O3446       O  0.54996438  0.41701811  0.46829782    -2.17500
O3447       O  0.97653370  0.40614794  0.55406684    -0.66180
O3448       O  0.52207294  0.41345860  0.57283503    -0.50750
C3449       C  0.49535561  0.40642450  0.57793156     0.72590
O3450       O  0.54369626  0.29724687  0.52892781    -0.59090
O3451       O  0.51533958  0.30016584  0.48275596    -0.51070
C3452       C  0.52898980  0.28747162  0.50760410     0.74390
O3453       O  0.58283806  0.36162937  0.58143018    -0.70480
O3454       O  0.57904750  0.40555527  0.56773058    -0.49160
C3455       C  0.58741582  0.38524052  0.58672129     0.75780
O3456       O  0.94124577  0.34337838  0.50640104    -0.65810
O3457       O  0.95952903  0.32349806  0.46905882    -0.53010
C3458       C  0.93946599  0.32738907  0.48721337     0.74160
Zr3459     Zr  0.97791434  0.37032475  0.52689165     2.77540
O3460       O  0.97893247  0.33372120  0.57069272    -0.96560
O3461       O  0.92794888  0.37973946  0.53847329    -0.77380
Zr3462     Zr  0.55842874  0.34006119  0.53763484     2.70070
O3463       O  0.55452988  0.31065244  0.58755382    -0.78630
O3464       O  0.60778134  0.32389364  0.53409271    -0.97710
Zr3465     Zr  0.50608827  0.34451274  0.45848722     2.21500
Zr3466     Zr  0.54650592  0.41159686  0.52370310     2.11130
O3467       O  0.52702880  0.37130184  0.54930375    -2.46400
O3468       O  0.50895144  0.33823475  0.51489857    -0.78420
O3469       O  0.49687584  0.41123445  0.50460621    -0.70620
O3470       O  0.55583586  0.34292685  0.48150553    -2.31580
O3471       O  0.97779530  0.37852383  0.47178576    -2.27780
O3472       O  0.57769914  0.37884858  0.51164324    -0.72380
H3473       H  0.55927491  0.43323931  0.46008201     0.79620
H3474       H  0.56621831  0.32818301  0.47700100     0.80710
H3475       H  0.52761555  0.36872366  0.57194390     0.82930
H3476       H  0.95745789  0.37830447  0.46421356     0.80540
H3477       H  0.62254377  0.34381080  0.47136662     0.43570
H3478       H  0.62029957  0.33243880  0.54873157     0.42540
H3479       H  0.53315243  0.30825143  0.58982252     0.42220
H3480       H  0.99045236  0.33906635  0.58854774     0.40160
H3481       H  0.92055464  0.39255910  0.52004625     0.43290
H3482       H  0.93988314  0.43140899  0.45078813     0.38070
H3483       H  0.53261318  0.43082842  0.39449313     0.44190
H3484       H  0.59214787  0.42629355  0.41262635     0.40600
H3485       H  0.95848541  0.33146699  0.57719648     0.45520
H3486       H  0.95234055  0.45154523  0.42338998     0.44250
H3487       H  0.60762804  0.40287901  0.40242493     0.44380
H3488       H  0.60718566  0.30548092  0.54447289     0.44740
C3489       C  0.51739928  0.24778130  0.48829702    -0.15270
C3490       C  0.52834086  0.25932624  0.51162552    -0.30450
H3491       H  0.50791337  0.25911724  0.46653415     0.13750
H3492       H  0.53837252  0.24807588  0.53315663     0.14330
C3493       C  0.53062732  0.00981199  0.51074595    -0.15270
C3494       C  0.51923347  0.49829007  0.48251229    -0.30450
H3495       H  0.54096609  0.99850224  0.53206221     0.13750
H3496       H  0.50926235  0.50978440  0.46111554     0.14330
C3497       C  0.66289114  0.18558998  0.48865599    -0.15270
C3498       C  0.64071109  0.18836885  0.50703872    -0.30450
H3499       H  0.66095998  0.17261738  0.47169563     0.13750
H3500       H  0.64262003  0.20139284  0.52393944     0.14330
C3501       C  0.91226487  0.31259029  0.48583341    -0.15270
C3502       C  0.89029130  0.31503090  0.50451616    -0.30450
H3503       H  0.91027000  0.29954209  0.46895944     0.13750
H3504       H  0.89231910  0.32800423  0.52146941     0.14330
C3505       C  0.66513559  0.43505791  0.47983062    -0.15270
C3506       C  0.64276528  0.43837402  0.49759007    -0.30450
H3507       H  0.66341151  0.42158730  0.46344739     0.13750
H3508       H  0.64451759  0.45192933  0.51386974     0.14330
C3509       C  0.77958712  0.38475422  0.50915905    -0.15270
C3510       C  0.76793159  0.37227390  0.48706965    -0.30450
H3511       H  0.78997500  0.37404834  0.53083600     0.13750
H3512       H  0.75788821  0.38304862  0.46524154     0.14330
C3513       C  0.77140118  0.12337431  0.48329568    -0.15270
C3514       C  0.78241183  0.13416247  0.50749939    -0.30450
H3515       H  0.76179287  0.13533285  0.46203649     0.13750
H3516       H  0.79258429  0.12228582  0.52851390     0.14330
C3517       C  0.89162927  0.06287075  0.50133963    -0.15270
C3518       C  0.91455982  0.05965573  0.48439923    -0.30450
H3519       H  0.89283625  0.07617987  0.51793018     0.13750
H3520       H  0.91332017  0.04647881  0.46765090     0.14330
C3521       C  0.72829906  0.99803990  0.61903580    -0.15270
C3522       C  0.73563402  0.02321662  0.60904867    -0.30450
H3523       H  0.73521082  0.98335015  0.60652963     0.13750
H3524       H  0.72989408  0.03849232  0.62150307     0.14330
C3525       C  0.59287767  0.41346927  0.62594630    -0.15270
C3526       C  0.60236192  0.39166364  0.61625814    -0.30450
H3527       H  0.57196250  0.42176676  0.61556526     0.13750
H3528       H  0.62183367  0.38119122  0.62721393     0.14330
C3529       C  0.72567816  0.24233809  0.62998994    -0.15270
C3530       C  0.73798556  0.26623847  0.62135088    -0.30450
H3531       H  0.72613194  0.22854346  0.61450575     0.13750
H3532       H  0.73921558  0.28041032  0.63682491     0.14330
C3533       C  0.59451621  0.14221016  0.62438794    -0.15270
C3534       C  0.58651816  0.16475421  0.63400689    -0.30450
H3535       H  0.61276773  0.13053380  0.63634987     0.13750
H3536       H  0.56674306  0.17456092  0.62263445     0.14330
C3537       C  0.64846282  0.33983617  0.75019675    -0.15270
C3538       C  0.64993627  0.35788841  0.72440295    -0.30450
H3539       H  0.64466928  0.34531658  0.77266232     0.13750
H3540       H  0.65455914  0.35255847  0.70207523     0.14330
C3541       C  0.63171873  0.10516105  0.74780627    -0.15270
C3542       C  0.64609339  0.09299408  0.72899019    -0.30450
H3543       H  0.61847306  0.09419572  0.76562469     0.13750
H3544       H  0.65891199  0.10411237  0.71086835     0.14330
C3545       C  0.84226222  0.28880053  0.63206447    -0.15270
C3546       C  0.85085750  0.26671005  0.62185625    -0.30450
H3547       H  0.82134009  0.29743749  0.62229400     0.13750
H3548       H  0.87045978  0.25611083  0.63218216     0.14330
C3549       C  0.96653748  0.37639751  0.61329786    -0.15270
C3550       C  0.98679875  0.39574755  0.60901331    -0.30450
H3551       H  0.95497359  0.37072513  0.59307995     0.13750
H3552       H  0.49936141  0.40059144  0.63012944     0.14330
C3553       C  0.53844404  0.29382925  0.74070182    -0.15270
C3554       C  0.51476338  0.29279387  0.72088757    -0.30450
H3555       H  0.53832570  0.30552156  0.75902041     0.13750
H3556       H  0.01606780  0.28140350  0.70017769     0.14330
C3557       C  0.78937875  0.41816714  0.73715276    -0.15270
C3558       C  0.76449830  0.41707520  0.71883789    -0.30450
H3559       H  0.78991573  0.42993411  0.75541725     0.13750
H3560       H  0.76410047  0.40528478  0.70059798     0.14330
C3561       C  0.83509948  0.03992943  0.62799670    -0.15270
C3562       C  0.84423809  0.01771502  0.61851633    -0.30450
H3563       H  0.81518876  0.04923002  0.61625144     0.13750
H3564       H  0.86216690  0.50577358  0.63114357     0.14330
C3565       C  0.98238292  0.14731240  0.61702675    -0.15270
C3566       C  0.97255477  0.12282307  0.62714298    -0.30450
H3567       H  0.97847327  0.16304623  0.62947686     0.13750
H3568       H  0.97798531  0.10760316  0.61465855     0.14330
C3569       C  0.00389792  0.03660201  0.71536878    -0.15270
C3570       C  0.52850754  0.03655096  0.73244742    -0.30450
H3571       H  0.00264436  0.02505512  0.69686430     0.13750
H3572       H  0.52941354  0.04804795  0.75101201     0.14330
C3573       C  0.88713376  0.48023943  0.74207626    -0.15270
C3574       C  0.90878041  0.46965607  0.72939877    -0.30450
H3575       H  0.87226340  0.96916384  0.74958891     0.13750
H3576       H  0.92443463  0.48148623  0.71515489     0.14330
C3577       C  0.89569038  0.23363423  0.73124280    -0.15270
C3578       C  0.88916856  0.21423062  0.75442289    -0.30450
H3579       H  0.90265098  0.22892364  0.70937570     0.13750
H3580       H  0.88274350  0.21854670  0.77666256     0.14330
C3581       C  0.77961006  0.16188436  0.74211272    -0.15270
C3582       C  0.75535087  0.16049101  0.72341981    -0.30450
H3583       H  0.78015490  0.17373623  0.76030893     0.13750
H3584       H  0.75460395  0.14829682  0.70557505     0.14330
C3585       C  0.94662586  0.33293863  0.87022794    -0.15270
C3586       C  0.95237983  0.35808806  0.85888647    -0.30450
H3587       H  0.92863689  0.32371212  0.85870587     0.13750
H3588       H  0.97092988  0.36733315  0.86938121     0.14330
C3589       C  0.57089111  0.25319589  0.86814354    -0.15270
C3590       C  0.57346314  0.22933977  0.85967351    -0.30450
H3591       H  0.57842646  0.27060734  0.85320410     0.13750
H3592       H  0.56559688  0.21195957  0.87439176     0.14330
C3593       C  0.93618244  0.05718829  0.86639914    -0.15270
C3594       C  0.92754167  0.08184719  0.86686631    -0.30450
H3595       H  0.93598472  0.05036478  0.84425053     0.13750
H3596       H  0.92661780  0.08917188  0.88862252     0.14330
C3597       C  0.56809307  0.46627836  0.84700180    -0.15270
C3598       C  0.56697461  0.48837932  0.85917501    -0.30450
H3599       H  0.55749809  0.44868609  0.85817574     0.13750
H3600       H  0.57952051  0.00457997  0.84897128     0.14330
C3601       C  0.51221089  0.38505123  0.95419871    -0.15270
C3602       C  0.51694599  0.39884908  0.97717501    -0.30450
H3603       H  0.51108312  0.39452102  0.92971142     0.13750
H3604       H  0.52056765  0.38833960  0.00115764     0.14330
C3605       C  0.50371718  0.13110700  0.00341846    -0.15270
C3606       C  0.50994519  0.14278819  0.02824692    -0.30450
H3607       H  0.00352544  0.14296149  0.98151526     0.13750
H3608       H  0.51436115  0.13171797  0.05174422     0.14330
C3609       C  0.82479994  0.38373916  0.85704764    -0.15270
C3610       C  0.82961333  0.35961949  0.84960359    -0.30450
H3611       H  0.83158356  0.40120492  0.84167415     0.13750
H3612       H  0.82240172  0.34218023  0.86470456     0.14330
C3613       C  0.71186628  0.46814593  0.86276740    -0.15270
C3614       C  0.68387063  0.47645529  0.85674751    -0.30450
H3615       H  0.72828853  0.47609988  0.84653234     0.13750
H3616       H  0.66650911  0.97058949  0.87218826     0.14330
C3617       C  0.65183965  0.32423946  0.99597290    -0.15270
C3618       C  0.62984321  0.32640130  0.97304948    -0.30450
H3619       H  0.65019973  0.31037208  0.01766856     0.13750
H3620       H  0.63155258  0.34021146  0.95131578     0.14330
C3621       C  0.87568801  0.46212546  0.95894496    -0.15270
C3622       C  0.90059419  0.45652725  0.94658304    -0.30450
H3623       H  0.87520831  0.47786771  0.97214429     0.13750
H3624       H  0.90113856  0.44070341  0.93351542     0.14330
C3625       C  0.81349602  0.11311149  0.87038739    -0.15270
C3626       C  0.81399448  0.09102153  0.85767958    -0.30450
H3627       H  0.82700159  0.12927916  0.86024223     0.13750
H3628       H  0.80239308  0.07379842  0.86827909     0.14330
C3629       C  0.68846858  0.18369014  0.87641222    -0.15270
C3630       C  0.67971020  0.20883724  0.87380853    -0.30450
H3631       H  0.69019522  0.17561080  0.85528924     0.13750
H3632       H  0.67695646  0.21752163  0.89437017     0.14330
C3633       C  0.62387805  0.08403675  0.99254837    -0.15270
C3634       C  0.64377320  0.08526609  0.96986204    -0.30450
H3635       H  0.62923737  0.09166612  0.01390822     0.13750
H3636       H  0.63870970  0.07697012  0.94892362     0.14330
C3637       C  0.75923631  0.25223108  0.02910809    -0.15270
C3638       C  0.75418540  0.27153760  0.00448298    -0.30450
H3639       H  0.76714469  0.25645093  0.05181837     0.13750
H3640       H  0.74808520  0.26670242  0.98156507     0.14330
C3641       C  0.77282768  0.02650160  0.97120375    -0.15270
C3642       C  0.75307452  0.01324901  0.95618946    -0.30450
H3643       H  0.79080137  0.01569285  0.98525736     0.13750
H3644       H  0.73383577  0.02281242  0.94330365     0.14330
C3645       C  0.89498427  0.20178967  0.02121768    -0.15270
C3646       C  0.86895773  0.21239752  0.00996924    -0.30450
H3647       H  0.89597492  0.18230683  0.03504303     0.13750
H3648       H  0.86799936  0.23160040  0.99545286     0.14330
C3649       C  0.68711259  0.34549035  0.11671648    -0.15270
C3650       C  0.69244970  0.37113820  0.10439200    -0.30450
H3651       H  0.69354667  0.33021966  0.10457949     0.13750
H3652       H  0.68575362  0.38650381  0.11623190     0.14330
C3653       C  0.57842293  0.25433681  0.13316005    -0.15270
C3654       C  0.55058695  0.24645244  0.12675865    -0.30450
H3655       H  0.59547404  0.25046606  0.11815077     0.13750
H3656       H  0.53317476  0.24960336  0.14167570     0.14330
C3657       C  0.66609239  0.28881369  0.37941925    -0.15270
C3658       C  0.68192036  0.26612696  0.38309146    -0.30450
H3659       H  0.66389580  0.29864638  0.39918295     0.13750
H3660       H  0.68249941  0.25563791  0.36371810     0.14330
C3661       C  0.56311296  0.29868088  0.37256783    -0.15270
C3662       C  0.57322646  0.31782437  0.38820510    -0.30450
H3663       H  0.54360267  0.28750578  0.37921732     0.13750
H3664       H  0.59385158  0.32693449  0.38087777     0.14330
C3665       C  0.72156748  0.09098814  0.13761272    -0.15270
C3666       C  0.73571135  0.11461222  0.13277063    -0.30450
H3667       H  0.71993172  0.07961973  0.11893661     0.13750
H3668       H  0.73898810  0.12578375  0.15150746     0.14330
C3669       C  0.58148791  0.02113455  0.12994256    -0.15270
C3670       C  0.59038925  0.00422646  0.11200277    -0.30450
H3671       H  0.56028514  0.03060597  0.12333975     0.13750
H3672       H  0.61032749  0.99282323  0.11821531     0.14330
C3673       C  0.62638531  0.42586727  0.26281330    -0.15270
C3674       C  0.63469608  0.44512728  0.23987755    -0.30450
H3675       H  0.61853680  0.43045530  0.28434430     0.13750
H3676       H  0.64308190  0.44035681  0.21867485     0.14330
C3677       C  0.63548228  0.17681115  0.26313471    -0.15270
C3678       C  0.63465550  0.19431463  0.23637718    -0.30450
H3679       H  0.63196911  0.18250478  0.28554309     0.13750
H3680       H  0.63866441  0.18878549  0.21399908     0.14330
C3681       C  0.68487810  0.05003701  0.37781633    -0.15270
C3682       C  0.69028553  0.02418684  0.38034097    -0.30450
H3683       H  0.69852124  0.06087412  0.39211480     0.13750
H3684       H  0.67712362  0.01276327  0.36612663     0.14330
C3685       C  0.56687602  0.05486072  0.37192413    -0.15270
C3686       C  0.57561985  0.07405053  0.38817553    -0.30450
H3687       H  0.54797230  0.04273696  0.37826271     0.13750
H3688       H  0.59598076  0.08402828  0.38161831     0.14330
C3689       C  0.83342552  0.39121826  0.12200793    -0.15270
C3690       C  0.80664051  0.38038851  0.11627642    -0.30450
H3691       H  0.85041790  0.38942185  0.10602570     0.13750
H3692       H  0.78922658  0.38109873  0.13209400     0.14330
C3693       C  0.96521243  0.47149122  0.12449423    -0.15270
C3694       C  0.97957344  0.99403335  0.11725545    -0.30450
H3695       H  0.96375653  0.45920004  0.10677217     0.13750
H3696       H  0.98253026  0.00622811  0.13497429     0.14330
C3697       C  0.99411473  0.37128302  0.22694425    -0.15270
C3698       C  0.51485749  0.36853421  0.25042137    -0.30450
H3699       H  0.99595261  0.36167582  0.20691441     0.13750
H3700       H  0.51307342  0.37833826  0.27026199     0.14330
C3701       C  0.75217575  0.00447635  0.22699747    -0.15270
C3702       C  0.77691274  0.50439017  0.24833091    -0.30450
H3703       H  0.75298822  0.49394962  0.20901246     0.13750
H3704       H  0.77609393  0.01510574  0.26617632     0.14330
C3705       C  0.81490978  0.43052384  0.36398943    -0.15270
C3706       C  0.82426535  0.44959573  0.38028284    -0.30450
H3707       H  0.79625047  0.41827921  0.37093747     0.13750
H3708       H  0.84433385  0.45973609  0.37300944     0.14330
C3709       C  0.91756720  0.41218909  0.37536981    -0.15270
C3710       C  0.93299693  0.38935537  0.37916330    -0.30450
H3711       H  0.91488575  0.42171422  0.39529993     0.13750
H3712       H  0.93402223  0.37909900  0.35960366     0.14330
C3713       C  0.82927062  0.13234214  0.14259520    -0.15270
C3714       C  0.84180438  0.11991375  0.12192930    -0.30450
H3715       H  0.80576828  0.13628156  0.13891993     0.13750
H3716       H  0.86508136  0.11523080  0.12432813     0.14330
C3717       C  0.94077277  0.22327021  0.12228913    -0.15270
C3718       C  0.94465381  0.24921546  0.11112909    -0.30450
H3719       H  0.94566967  0.20865607  0.10847641     0.13750
H3720       H  0.94051164  0.26385939  0.12514591     0.14330
C3721       C  0.00195372  0.12928142  0.23288468    -0.15270
C3722       C  0.52609936  0.12828834  0.25636594    -0.30450
H3723       H  0.00263947  0.11962843  0.21275929     0.13750
H3724       H  0.52518507  0.13771338  0.27665399     0.14330
C3725       C  0.87489804  0.30541800  0.25661339    -0.15270
C3726       C  0.88173225  0.32305401  0.23114903    -0.30450
H3727       H  0.86767933  0.31157182  0.27755682     0.13750
H3728       H  0.88994414  0.31692424  0.21062836     0.14330
C3729       C  0.89078041  0.07237945  0.23831220    -0.15270
C3730       C  0.88656862  0.05280207  0.26202712    -0.30450
H3731       H  0.89724763  0.06850752  0.21586315     0.13750
H3732       H  0.88056067  0.05660751  0.28466332     0.14330
C3733       C  0.76867313  0.25033921  0.25238972    -0.15270
C3734       C  0.74657875  0.25204695  0.22958813    -0.30450
H3735       H  0.76699503  0.26042619  0.27202498     0.13750
H3736       H  0.74812541  0.24184501  0.21003592     0.14330
C3737       C  0.81628617  0.17692958  0.37503980    -0.15270
C3738       C  0.82515324  0.19633255  0.39084282    -0.30450
H3739       H  0.79733266  0.16492169  0.38154514     0.13750
H3740       H  0.84546213  0.20620963  0.38384967     0.14330
C3741       C  0.92756637  0.14136968  0.38755604    -0.15270
C3742       C  0.91303886  0.16476734  0.38385734    -0.30450
H3743       H  0.92567563  0.12992575  0.36898446     0.13750
H3744       H  0.91300408  0.17546979  0.40310327     0.14330
O3745       O  0.83748253  0.65343564  0.33754685    -0.74130
O3746       O  0.83405417  0.69745250  0.33209264    -0.53040
C3747       C  0.82958982  0.67463108  0.34695376     0.79600
O3748       O  0.97345638  0.65176896  0.26369170    -0.58730
O3749       O  0.95361368  0.64210415  0.21777845    -0.51760
C3750       C  0.97463004  0.64127907  0.23928380     0.71610
O3751       O  0.91640787  0.68813168  0.32743000    -0.73290
O3752       O  0.88416981  0.70630580  0.34854981    -0.53850
C3753       C  0.90609574  0.69102279  0.35257110     0.77610
O3754       O  0.87363339  0.60335439  0.26806444    -0.59230
O3755       O  0.89756607  0.61409452  0.22244376    -0.51550
C3756       C  0.88631541  0.59784672  0.24420005     0.74210
Zr3757     Zr  0.86147462  0.64166609  0.28991238     2.54710
O3758       O  0.87837764  0.60978705  0.33540243    -0.79000
O3759       O  0.81375660  0.62111214  0.28404979    -0.92420
Zr3760     Zr  0.93996856  0.67905562  0.28448221     2.64680
O3761       O  0.97142298  0.65506033  0.32719277    -0.97370
O3762       O  0.97910470  0.71069631  0.28727171    -0.79430
O3763       O  0.89174104  0.67445136  0.30261285    -0.82790
O3764       O  0.90985780  0.64632373  0.26843232    -2.17500
O3765       O  0.82802960  0.66090311  0.18034711    -0.66180
O3766       O  0.87253590  0.64467800  0.17214537    -0.50750
C3767       C  0.84449459  0.64679670  0.16696163     0.72590
O3768       O  0.88873884  0.77029656  0.23432214    -0.59090
O3769       O  0.87318054  0.76093791  0.28392986    -0.51070
C3770       C  0.87976077  0.77694105  0.25908013     0.74390
O3771       O  0.92542300  0.72805290  0.17177253    -0.70480
O3772       O  0.92369431  0.68588945  0.16499893    -0.49160
C3773       C  0.92930172  0.71029525  0.15607327     0.75780
O3774       O  0.79677313  0.72145117  0.23189919    -0.65810
O3775       O  0.81589067  0.73450064  0.27651712    -0.53010
C3776       C  0.79570615  0.73449393  0.25410637     0.74160
Zr3777     Zr  0.83032888  0.69137126  0.21732375     2.77540
O3778       O  0.81252305  0.71835040  0.16807027    -0.96560
O3779       O  0.78309216  0.66971190  0.22480898    -0.77380
Zr3780     Zr  0.90488119  0.73145181  0.21893275     2.70070
O3781       O  0.89227437  0.76628370  0.17503740    -0.78630
O3782       O  0.95241157  0.75137683  0.22810187    -0.97710
Zr3783     Zr  0.86462633  0.71418448  0.29176689     2.21500
Zr3784     Zr  0.90378370  0.66006092  0.21249908     2.11130
O3785       O  0.87692798  0.69947929  0.19710657    -2.46400
O3786       O  0.85699728  0.72528080  0.23637528    -0.78420
O3787       O  0.85658908  0.65270680  0.23414713    -0.70620
O3788       O  0.91399403  0.71974314  0.27366963    -2.31580
O3789       O  0.83543538  0.68106554  0.27301665    -2.27780
O3790       O  0.93339758  0.69283107  0.22994644    -0.72380
H3791       H  0.92052939  0.63015879  0.27390290     0.79620
H3792       H  0.92454135  0.73310223  0.28247227     0.80710
H3793       H  0.87413353  0.70419585  0.17452971     0.82930
H3794       H  0.81614459  0.67992236  0.28123025     0.80540
H3795       H  0.97966293  0.71370693  0.30921705     0.43570
H3796       H  0.96690688  0.73989960  0.22131608     0.42540
H3797       H  0.87222147  0.76192975  0.16743405     0.42220
H3798       H  0.82348097  0.71242168  0.15163064     0.40160
H3799       H  0.78756478  0.65103275  0.22676528     0.43290
H3800       H  0.79985668  0.63186880  0.29287691     0.38070
H3801       H  0.88466724  0.62012252  0.35163968     0.44190
H3802       H  0.96884684  0.63662487  0.32527724     0.40600
H3803       H  0.79212244  0.71235982  0.16448894     0.45520
H3804       H  0.81516127  0.60466212  0.29940502     0.44250
H3805       H  0.99181175  0.65929175  0.32139155     0.44380
H3806       H  0.95242348  0.76737791  0.21200003     0.44740
O3807       O  0.89700311  0.52043281  0.23376034    -0.74130
O3808       O  0.88174813  0.00833156  0.28057095    -0.53040
C3809       C  0.88942946  0.52449131  0.26065189     0.79600
O3810       O  0.82544479  0.91676110  0.16224334    -0.58730
O3811       O  0.87121390  0.90296941  0.15450677    -0.51760
C3812       C  0.84313029  0.90387240  0.14838514     0.71610
O3813       O  0.80215999  0.97767148  0.22036191    -0.73290
O3814       O  0.82204119  0.98779822  0.26643945    -0.53850
C3815       C  0.80190247  0.98920878  0.24414234     0.77610
O3816       O  0.94179443  0.98046973  0.16674773    -0.58430
O3817       O  0.93492622  0.93927978  0.15703589    -0.51550
C3818       C  0.94656115  0.96253835  0.15131831     0.74210
Zr3819     Zr  0.90970219  0.98484613  0.20685434     2.54710
O3820       O  0.89489535  0.51813842  0.16492827    -0.79000
O3821       O  0.95593809  0.00750942  0.21412970    -0.92420
Zr3822     Zr  0.83270599  0.94842578  0.19912944     2.64680
O3823       O  0.82494545  0.98034804  0.15106964    -0.97370
O3824       O  0.78114396  0.93615635  0.19505318    -0.79430
O3825       O  0.86145320  0.97890054  0.22291173    -0.82790
O3826       O  0.88088354  0.95478155  0.18145277    -2.17500
O3827       O  0.96780828  0.90006519  0.25084300    -0.66180
O3828       O  0.94916329  0.89036593  0.20453316    -0.50750
C3829       C  0.96877162  0.88855980  0.22731634     0.72590
O3830       O  0.83343048  0.90915628  0.32160589    -0.59090
O3831       O  0.83642969  0.95285436  0.31895333    -0.51070
C3832       C  0.82857836  0.93047136  0.33251983     0.74390
O3833       O  0.86745598  0.85746202  0.25410587    -0.70480
O3834       O  0.89458567  0.86620368  0.21052822    -0.49160
C3835       C  0.88158802  0.85065294  0.23216898     0.75780
O3836       O  0.93726347  0.93435584  0.32600512    -0.65810
O3837       O  0.88976781  0.94407090  0.33132568    -0.53010
C3838       C  0.91485223  0.93366533  0.34223045     0.74160
Zr3839     Zr  0.93822958  0.92907574  0.27284834     2.77540
O3840       O  0.96870190  0.90046351  0.31257918    -0.96560
O3841       O  0.97976189  0.95880828  0.26809518    -0.77380
Zr3842     Zr  0.85663328  0.89625587  0.27366868     2.70070
O3843       O  0.86961532  0.86238915  0.31854370    -0.78630
O3844       O  0.80723477  0.87933652  0.26620780    -0.97710
Zr3845     Zr  0.86792262  0.96467737  0.27823696     2.21500
Zr3846     Zr  0.90316413  0.91328696  0.19780918     2.11130
O3847       O  0.90562528  0.89935456  0.25402354    -2.46400
O3848       O  0.89035214  0.92426301  0.29136053    -0.78420
O3849       O  0.93371751  0.94391401  0.21861239    -0.70620
O3850       O  0.83485990  0.93664232  0.25524262    -2.31580
O3851       O  0.91666186  0.97082919  0.26186822    -2.27780
O3852       O  0.85490532  0.90799707  0.21737921    -0.72380
H3853       H  0.88033858  0.95984098  0.15884791     0.79620
H3854       H  0.81547496  0.93669942  0.26307965     0.80710
H3855       H  0.91505932  0.88264137  0.25993874     0.82930
H3856       H  0.92781540  0.98283792  0.27243628     0.80540
H3857       H  0.77781970  0.92503029  0.21554581     0.43570
H3858       H  0.80501523  0.87835538  0.24356780     0.42540
H3859       H  0.89136598  0.86292610  0.32078943     0.42220
H3860       H  0.96452080  0.88260586  0.30905567     0.40160
H3861       H  0.99383632  0.95082093  0.25612279     0.43290
H3862       H  0.95539569  0.01288243  0.23485045     0.38070
H3863       H  0.87330547  0.51903665  0.16611141     0.44190
H3864       H  0.82592237  0.97029193  0.13387942     0.40600
H3865       H  0.98926814  0.90392219  0.30692166     0.45520
H3866       H  0.95591572  0.52283681  0.20117344     0.44250
H3867       H  0.80397744  0.98528102  0.15058917     0.44380
H3868       H  0.80840788  0.86103233  0.27703330     0.44740
O3869       O  0.64851774  0.64406804  0.23717571    -0.74130
O3870       O  0.63470236  0.63312266  0.28739824    -0.53040
C3871       C  0.64019613  0.64963710  0.26292360     0.79600
O3872       O  0.58309920  0.54562495  0.17018759    -0.58730
O3873       O  0.62564644  0.52512051  0.16410660    -0.51760
C3874       C  0.59841857  0.53079743  0.15658224     0.71610
O3875       O  0.55302728  0.60066303  0.23097273    -0.73290
O3876       O  0.57322765  0.61068635  0.27691053    -0.53850
C3877       C  0.55241432  0.61197582  0.25490690     0.77610
O3878       O  0.69844159  0.60026517  0.18067143    -0.58430
O3879       O  0.68884337  0.56031406  0.16840052    -0.51550
C3880       C  0.70222455  0.58276144  0.16446528     0.74210
Zr3881     Zr  0.66354479  0.60694451  0.21639546     2.54710
O3882       O  0.64821592  0.63709798  0.16872582    -0.79000
O3883       O  0.70841963  0.63173050  0.22286573    -0.92420
Zr3884     Zr  0.58646906  0.57283576  0.21079581     2.64680
O3885       O  0.57750170  0.60710952  0.16522337    -0.97370
O3886       O  0.53638363  0.55692654  0.20553113    -0.79430
O3887       O  0.61552340  0.60329177  0.23329000    -0.82790
O3888       O  0.63421314  0.57720173  0.19183426    -2.17500
O3889       O  0.72607581  0.52976753  0.25613842    -0.66180
O3890       O  0.70369574  0.51525977  0.21414601    -0.50750
C3891       C  0.72591194  0.51744152  0.23311014     0.72590
O3892       O  0.58693014  0.53339648  0.33209081    -0.59090
O3893       O  0.59055145  0.57714528  0.32920870    -0.51070
C3894       C  0.58229588  0.55492468  0.34274049     0.74390
O3895       O  0.62036155  0.97950492  0.26399086    -0.70480
O3896       O  0.64667164  0.48876559  0.22062079    -0.49160
C3897       C  0.63362811  0.97299611  0.24110207     0.75780
O3898       O  0.69392466  0.57123254  0.32828963    -0.65810
O3899       O  0.64702636  0.57098368  0.34069215    -0.53010
C3900       C  0.67452285  0.56572248  0.34805538     0.74160
Zr3901     Zr  0.69173160  0.55105556  0.28337954     2.77540
O3902       O  0.71001648  0.51344723  0.32080492    -0.96560
O3903       O  0.73936266  0.57187739  0.28839001    -0.77380
Zr3904     Zr  0.61057063  0.51924580  0.28491469     2.70070
O3905       O  0.62367867  0.98580564  0.32938288    -0.78630
O3906       O  0.56126362  0.50198955  0.27804882    -0.97710
Zr3907     Zr  0.62148856  0.58879231  0.28842197     2.21500
Zr3908     Zr  0.65614053  0.53549409  0.20848337     2.11130
O3909       O  0.65914296  0.52137803  0.26459763    -2.46400
O3910       O  0.64400945  0.54762152  0.30346498    -0.78420
O3911       O  0.68665844  0.56592498  0.22927347    -0.70620
O3912       O  0.58895204  0.56000609  0.26652725    -2.31580
O3913       O  0.67023831  0.59317279  0.27106723    -2.27780
O3914       O  0.60802246  0.53181631  0.22865183    -0.72380
H3915       H  0.63341888  0.58210318  0.16920400     0.79620
H3916       H  0.56956549  0.56011556  0.27433687     0.80710
H3917       H  0.66855922  0.50463288  0.27008944     0.82930
H3918       H  0.68161444  0.60560207  0.28072330     0.80540
H3919       H  0.53332001  0.54577867  0.22607627     0.43570
H3920       H  0.55935991  0.49982798  0.25577081     0.42540
H3921       H  0.64541073  0.98494324  0.32989698     0.42220
H3922       H  0.71002322  0.49900198  0.30891204     0.40160
H3923       H  0.74088640  0.58388678  0.26811951     0.43290
H3924       H  0.70833656  0.63611453  0.24414749     0.38070
H3925       H  0.62862252  0.64327389  0.17286757     0.44190
H3926       H  0.58315292  0.59951685  0.14710835     0.40600
H3927       H  0.73109134  0.51720329  0.32495188     0.45520
H3928       H  0.70502783  0.64847873  0.20840926     0.44250
H3929       H  0.55580894  0.60857647  0.16248194     0.44380
H3930       H  0.56205447  0.98386401  0.28923399     0.44740
O3931       O  0.66767583  0.85362717  0.16254286    -0.74130
O3932       O  0.66926248  0.81096654  0.15780212    -0.53040
C3933       C  0.67363030  0.83562571  0.14779655     0.79600
O3934       O  0.68336478  0.80624357  0.33124685    -0.58730
O3935       O  0.63582916  0.81563454  0.33770192    -0.51760
C3936       C  0.66146028  0.80564537  0.34818148     0.71610
O3937       O  0.71855372  0.77882447  0.25522478    -0.73290
O3938       O  0.69819765  0.76543583  0.21165710    -0.53850
C3939       C  0.71948882  0.76639157  0.23249510     0.77610
O3940       O  0.63603340  0.89324561  0.23314744    -0.58430
O3941       O  0.62014022  0.88104567  0.28240824    -0.51550
C3942       C  0.62771631  0.89833557  0.25919768     0.74210
Zr3943     Zr  0.64703379  0.85541361  0.21076679     2.54710
O3944       O  0.69425838  0.87748008  0.21183851    -0.79000
O3945       O  0.62345249  0.88896847  0.17105829    -0.92420
Zr3946     Zr  0.68370888  0.80339779  0.27733205     2.64680
O3947       O  0.72325065  0.83490866  0.27762733    -0.97370
O3948       O  0.71309806  0.77049283  0.31245928    -0.79430
O3949       O  0.67659902  0.81725639  0.22272871    -0.82790
O3950       O  0.65781459  0.84351748  0.26558921    -2.17500
O3951       O  0.54181446  0.84080830  0.22802029    -0.66180
O3952       O  0.56161437  0.85398563  0.27239787    -0.50750
C3953       C  0.54124249  0.85364549  0.25048247     0.72590
O3954       O  0.61688656  0.72730459  0.26071688    -0.59090
O3955       O  0.64212265  0.73751060  0.21582005    -0.51070
C3956       C  0.63033690  0.72155427  0.23761587     0.74390
O3957       O  0.58286184  0.77762928  0.33173894    -0.70480
O3958       O  0.58019437  0.82171117  0.32582844    -0.49160
C3959       C  0.57553867  0.79910545  0.34105026     0.75780
O3960       O  0.57067031  0.78136399  0.17205334    -0.65810
O3961       O  0.61735606  0.76990586  0.16406971    -0.53010
C3962       C  0.58935978  0.76956975  0.15822236     0.74160
Zr3963     Zr  0.57419306  0.81185421  0.20990251     2.77540
O3964       O  0.52729859  0.78917201  0.21544413    -0.96560
O3965       O  0.55669068  0.83970969  0.16123855    -0.77380
Zr3966     Zr  0.60645658  0.76444618  0.28420181     2.70070
O3967       O  0.56040772  0.74038769  0.28746500    -0.78630
O3968       O  0.63009447  0.73390282  0.32740147    -0.97710
Zr3969     Zr  0.64845575  0.78383230  0.20514396     2.21500
Zr3970     Zr  0.61037886  0.83497830  0.28480464     2.11130
O3971       O  0.57995934  0.80273284  0.26581502    -2.46400
O3972       O  0.60186797  0.77443190  0.22794897    -0.78420
O3973       O  0.60037958  0.84591129  0.22966537    -0.70620
O3974       O  0.65386243  0.77071195  0.26117114    -2.31580
O3975       O  0.62035337  0.82227056  0.18923164    -2.27780
O3976       O  0.63689255  0.79650838  0.29771585    -0.72380
H3977       H  0.66824391  0.85682259  0.27458480     0.79620
H3978       H  0.66484890  0.75470319  0.26648658     0.80710
H3979       H  0.56096153  0.80152695  0.27469422     0.82930
H3980       H  0.61752985  0.82670943  0.16662292     0.80540
H3981       H  0.70177503  0.75423195  0.31287518     0.43570
H3982       H  0.62489678  0.74005060  0.34667551     0.42540
H3983       H  0.54854773  0.74802968  0.26814958     0.42220
H3984       H  0.52116049  0.79090099  0.23649213     0.40160
H3985       H  0.56195274  0.85745457  0.16443318     0.43290
H3986       H  0.61554513  0.87978256  0.15427204     0.38070
H3987       H  0.70908031  0.86354968  0.21341345     0.44190
H3988       H  0.72160720  0.84164372  0.29738644     0.40600
H3989       H  0.51327928  0.80019027  0.20053860     0.45520
H3990       H  0.63983796  0.89958964  0.16169393     0.44250
H3991       H  0.74142560  0.82431465  0.28128845     0.44380
H3992       H  0.61889613  0.71759759  0.32766761     0.44740
O3993       O  0.72219463  0.62004128  0.08036682    -0.74130
O3994       O  0.76039437  0.64509292  0.09304267    -0.53040
C3995       C  0.74000637  0.62776451  0.10041186     0.79600
O3996       O  0.77977091  0.55933941  0.00185491    -0.58730
O3997       O  0.75172562  0.56976782  0.95551791    -0.51760
C3998       C  0.76516379  0.55336148  0.97778509     0.71610
O3999       O  0.81915908  0.60355106  0.07749625    -0.73290
O4000       O  0.81693546  0.64645402  0.08102738    -0.53850
C4001       C  0.82504290  0.62316390  0.09154957     0.77610
O4002       O  0.67769189  0.60662127  0.99818729    -0.58430
O4003       O  0.69303325  0.59860887  0.95193608    -0.51550
C4004       C  0.67371970  0.59764766  0.97295365     0.74210
Zr4005     Zr  0.71360896  0.62802991  0.02549580     2.54710
O4006       O  0.68463311  0.59389820  0.05506838    -0.79000
O4007       O  0.67404054  0.65756986  0.03076647    -0.92420
Zr4008     Zr  0.79342998  0.59636439  0.02632598     2.64680
O4009       O  0.78645836  0.55930197  0.06793180    -0.97370
O4010       O  0.84249296  0.58265246  0.01685323    -0.79430
O4011       O  0.76200476  0.62259029  0.04763617    -0.82790
O4012       O  0.74348004  0.59999094  0.00395149    -2.17500
O4013       O  0.69774513  0.67737580  0.93110518    -0.66180
O4014       O  0.71623338  0.64750782  0.90579907    -0.50750
C4015       C  0.70124720  0.66842146  0.90614178     0.72590
O4016       O  0.84589932  0.68127148  0.99052125    -0.59090
O4017       O  0.82735543  0.68930228  0.03579139    -0.51070
C4018       C  0.84706104  0.69141622  0.01544673     0.74390
O4019       O  0.81582854  0.63587480  0.91513761    -0.70480
O4020       O  0.77524727  0.61184748  0.90562695    -0.49160
C4021       C  0.80102391  0.62118424  0.89894288     0.75780
O4022       O  0.74685652  0.72184361  0.99682929    -0.65810
O4023       O  0.76867642  0.70819893  0.04561479    -0.53010
C4024       C  0.75758555  0.72594078  0.02376619     0.74160
Zr4025     Zr  0.73704364  0.68755417  0.96609148     2.77540
O4026       O  0.75595445  0.71772977  0.92236557    -0.96560
O4027       O  0.69626856  0.71797780  0.96082960    -0.77380
Zr4028     Zr  0.81365811  0.65520627  0.96248907     2.70070
O4029       O  0.82424104  0.69207592  0.92187866    -0.78630
O4030       O  0.86341444  0.63820025  0.96427239    -0.97710
Zr4031     Zr  0.78204746  0.66438920  0.04144471     2.21500
Zr4032     Zr  0.74353094  0.61716362  0.94874062     2.11130
O4033       O  0.76496994  0.65999446  0.94034487    -2.46400
O4034       O  0.78564880  0.68283364  0.98727771    -0.78420
O4035       O  0.71500469  0.64575482  0.97219214    -0.70620
O4036       O  0.81334933  0.63829333  0.01705262    -2.31580
O4037       O  0.73275265  0.67045609  0.02020215    -2.27780
O4038       O  0.79328019  0.61315489  0.97144447    -0.72380
H4039       H  0.73391235  0.58330712  0.00750809     0.79620
H4040       H  0.83322673  0.63778252  0.02630323     0.80710
H4041       H  0.76547209  0.66702415  0.91818193     0.82930
H4042       H  0.72168545  0.68145977  0.03089217     0.80540
H4043       H  0.85598135  0.59185384  0.02992665     0.43570
H4044       H  0.86081589  0.62009899  0.96096213     0.42540
H4045       H  0.81940729  0.70745192  0.93093164     0.42220
H4046       H  0.74322821  0.71519048  0.90379377     0.40160
H4047       H  0.68364729  0.71072341  0.97807417     0.43290
H4048       H  0.67204237  0.65546149  0.05371512     0.38070
H4049       H  0.69684219  0.57807391  0.05723334     0.44190
H4050       H  0.76630075  0.55310413  0.06349046     0.40600
H4051       H  0.75043581  0.73506355  0.92617256     0.45520
H4052       H  0.65606614  0.64952072  0.02273781     0.44250
H4053       H  0.79956485  0.54566047  0.06339182     0.44380
H4054       H  0.87169308  0.64740206  0.94474302     0.44740
O4055       O  0.81899057  0.87048322  0.06763217    -0.74130
O4056       O  0.77116053  0.86427160  0.07674691    -0.53040
C4057       C  0.79799841  0.86986147  0.08586003     0.79600
O4058       O  0.74256896  0.97255096  0.98632047    -0.58730
O4059       O  0.76981096  0.97400937  0.94314153    -0.51760
C4060       C  0.75504305  0.98467671  0.96193450     0.71610
O4061       O  0.71284659  0.90177391  0.06317171    -0.73290
O4062       O  0.71520344  0.85803826  0.06495925    -0.53850
C4063       C  0.70714305  0.87761379  0.07566909     0.77610
O4064       O  0.84944928  0.92853128  0.98926258    -0.58430
O4065       O  0.82916312  0.94883862  0.94188416    -0.51550
C4066       C  0.84992994  0.94517721  0.96362111     0.74210
Zr4067     Zr  0.81689003  0.89556739  0.01551657     2.54710
O4068       O  0.83691278  0.92284179  0.05162356    -0.79000
O4069       O  0.86262544  0.87164199  0.01686854    -0.92420
Zr4070     Zr  0.73705915  0.92823119  0.01550366     2.64680
O4071       O  0.75543722  0.95047283  0.05749850    -0.97370
O4072       O  0.68894635  0.94854202  0.01344282    -0.79430
O4073       O  0.76930462  0.89425835  0.03525566    -0.82790
O4074       O  0.78518268  0.93057728  0.99429723    -2.17500
O4075       O  0.80594967  0.87052900  0.90540577    -0.66180
O4076       O  0.80411590  0.91464118  0.89406316    -0.50750
C4077       C  0.81053284  0.89206756  0.88766475     0.72590
O4078       O  0.67641169  0.85973350  0.96505529    -0.59090
O4079       O  0.69603894  0.83829952  0.01244822    -0.51070
C4080       C  0.67562726  0.84222477  0.98972222     0.74390
O4081       O  0.70416520  0.93371041  0.90464067    -0.70480
O4082       O  0.75004146  0.94980943  0.89520021    -0.49160
C4083       C  0.72214182  0.94981690  0.88943490     0.75780
O4084       O  0.76792266  0.81275419  0.97643502    -0.65810
O4085       O  0.75610421  0.81060784  0.02701688    -0.53010
C4086       C  0.76054066  0.80018828  0.00299457     0.74160
Zr4087     Zr  0.78472160  0.85545403  0.95347319     2.77540
O4088       O  0.77098880  0.82752401  0.91561876    -0.96560
O4089       O  0.83266668  0.83448851  0.96385313    -0.77380
Zr4090     Zr  0.70889077  0.89431216  0.94583588     2.70070
O4091       O  0.69433782  0.87660307  0.89897351    -0.78630
O4092       O  0.66049459  0.91216770  0.95024749    -0.97710
Zr4093     Zr  0.74541847  0.85628076  0.02501831     2.21500
Zr4094     Zr  0.78096800  0.92922347  0.93905618     2.11130
O4095       O  0.75602187  0.89185210  0.92700500    -2.46400
O4096       O  0.73711134  0.85719320  0.97027754    -0.78420
O4097       O  0.81112331  0.89322390  0.96176417    -0.70620
O4098       O  0.71363127  0.89159378  0.00132969    -2.31580
O4099       O  0.79382238  0.85581102  0.00750954    -2.27780
O4100       O  0.73353493  0.93011441  0.95991635    -0.72380
H4101       H  0.79467086  0.94646353  0.99775865     0.79620
H4102       H  0.69435727  0.88968804  0.00955680     0.80710
H4103       H  0.75382349  0.89216844  0.90461835     0.82930
H4104       H  0.80488929  0.84083064  0.01818477     0.80540
H4105       H  0.67485216  0.93394221  0.01630400     0.43570
H4106       H  0.66428336  0.93038541  0.95250340     0.42540
H4107       H  0.70439456  0.85958880  0.90224737     0.42220
H4108       H  0.76241401  0.83922184  0.89676752     0.40160
H4109       H  0.84697125  0.84867054  0.95839522     0.43290
H4110       H  0.85826975  0.85385349  0.02767999     0.38070
H4111       H  0.81941314  0.93040928  0.05903989     0.44190
H4112       H  0.77163247  0.96152282  0.04843586     0.40600
H4113       H  0.78979938  0.82147562  0.90916094     0.45520
H4114       H  0.87598124  0.87882954  0.03206580     0.44250
H4115       H  0.73961209  0.96284387  0.05926589     0.44380
H4116       H  0.65056792  0.91336488  0.92903984     0.44740
O4117       O  0.96914166  0.49761674  0.06482013    -0.74130
O4118       O  0.50762921  0.52336005  0.07692423    -0.53040
C4119       C  0.98610365  0.50646875  0.08477209     0.79600
O4120       O  0.53164672  0.93412402  0.99814093    -0.58730
O4121       O  0.50513559  0.94191051  0.95058568    -0.51760
C4122       C  0.51770458  0.92672971  0.97458969     0.71610
O4123       O  0.56959631  0.98446930  0.06802303    -0.73290
O4124       O  0.56475239  0.52788044  0.06878971    -0.53850
C4125       C  0.57456588  0.50532059  0.08063242     0.77610
O4126       O  0.92891739  0.98177034  0.97680998    -0.58430
O4127       O  0.94821162  0.97157902  0.93344076    -0.51550
C4128       C  0.92719377  0.97162694  0.95192433     0.74210
Zr4129     Zr  0.96293368  0.50329593  0.00966227     2.54710
O4130       O  0.93472100  0.96752249  0.03662364    -0.79000
O4131       O  0.92254184  0.53248761  0.01331921    -0.92420
Zr4132     Zr  0.54411333  0.97331057  0.01826446     2.64680
O4133       O  0.53459177  0.94003134  0.06342587    -0.97370
O4134       O  0.59306102  0.95714374  0.01262435    -0.79430
O4135       O  0.51131014  0.50109879  0.03366851    -0.82790
O4136       O  0.49485114  0.97506820  0.99351716    -2.17500
O4137       O  0.94705975  0.54479181  0.92109771    -0.66180
O4138       O  0.96753314  0.51819885  0.89346569    -0.50750
C4139       C  0.95087080  0.53786911  0.89505966     0.72590
O4140       O  0.58877371  0.56551512  0.96293995    -0.59090
O4141       O  0.58073662  0.56433671  0.01458575    -0.51070
C4142       C  0.59605345  0.57070801  0.98992913     0.74390
O4143       O  0.56730582  0.50822804  0.90305820    -0.70480
O4144       O  0.52785332  0.98212105  0.89561362    -0.49160
C4145       C  0.55302440  0.49267858  0.88780458     0.75780
O4146       O  0.99735159  0.59729321  0.97543060    -0.65810
O4147       O  0.51830425  0.58727201  0.02566320    -0.53010
C4148       C  0.50620687  0.60334959  0.00255049     0.74160
Zr4149     Zr  0.98802290  0.56101268  0.94848780     2.77540
O4150       O  0.50532428  0.58824086  0.90143078    -0.96560
O4151       O  0.94886889  0.59319442  0.94046099    -0.77380
Zr4152     Zr  0.56508990  0.52847185  0.94929131     2.70070
O4153       O  0.58621593  0.55671554  0.90536937    -0.78630
O4154       O  0.61351094  0.50907935  0.96356663    -0.97710
Zr4155     Zr  0.53210107  0.54269380  0.02569467     2.21500
Zr4156     Zr  0.49706740  0.48975066  0.93713283     2.11130
O4157       O  0.51721850  0.53275842  0.92541952    -2.46400
O4158       O  0.53605102  0.55768918  0.97082890    -0.78420
O4159       O  0.96667336  0.51900650  0.95659428    -0.70620
O4160       O  0.56474913  0.51537507  0.00479212    -2.31580
O4161       O  0.98272591  0.54608384  0.00285521    -2.27780
O4162       O  0.54578341  0.98587164  0.96248629    -0.72380
H4163       H  0.98566945  0.95788841  0.99205029     0.79620
H4164       H  0.58448565  0.51567658  0.01425911     0.80710
H4165       H  0.51798503  0.53860669  0.90302362     0.82930
H4166       H  0.97106409  0.55766546  0.01212549     0.80540
H4167       H  0.60655628  0.96778538  0.02386649     0.43570
H4168       H  0.61551542  0.99590515  0.95062607     0.42540
H4169       H  0.56979052  0.56820007  0.89555159     0.42220
H4170       H  0.49186829  0.58440137  0.88402640     0.40160
H4171       H  0.93532695  0.58689581  0.95718898     0.43290
H4172       H  0.92293063  0.53375752  0.03587254     0.38070
H4173       H  0.94794905  0.95228038  0.03970090     0.44190
H4174       H  0.51435823  0.93400712  0.05898073     0.40600
H4175       H  0.99799415  0.60571006  0.90209983     0.45520
H4176       H  0.90459662  0.52234608  0.00976115     0.44250
H4177       H  0.54740082  0.92532072  0.06150670     0.44380
H4178       H  0.62742937  0.52258412  0.95449872     0.44740
O4179       O  0.56441226  0.74080319  0.07575448    -0.74130
O4180       O  0.51724174  0.73364058  0.08726642    -0.53040
C4181       C  0.54413339  0.73904765  0.09511159     0.79600
O4182       O  0.00035480  0.84410546  0.00063694    -0.58730
O4183       O  0.51974439  0.84435760  0.94278797    -0.51760
C4184       C  0.01358249  0.85654352  0.97718857     0.71610
O4185       O  0.96548848  0.77656888  0.07319203    -0.73290
O4186       O  0.95878183  0.73439595  0.06870786    -0.53850
C4187       C  0.95649262  0.75307425  0.08316969     0.77610
O4188       O  0.59759305  0.79745221  0.99882780    -0.58430
O4189       O  0.57809863  0.81660032  0.95050815    -0.51550
C4190       C  0.59892249  0.81318676  0.97276415     0.74210
Zr4191     Zr  0.56289364  0.76768922  0.02431715     2.54710
O4192       O  0.57789691  0.79649015  0.06068993    -0.79000
O4193       O  0.61051625  0.74616532  0.02968445    -0.92420
Zr4194     Zr  0.98534695  0.80057967  0.02319349     2.64680
O4195       O  0.99405411  0.82546353  0.06526185    -0.97370
O4196       O  0.93623417  0.81927194  0.01248355    -0.79430
O4197       O  0.51600215  0.76859774  0.04422698    -0.82790
O4198       O  0.53318395  0.80277536  0.99834064    -2.17500
O4199       O  0.55141059  0.73691530  0.91430570    -0.66180
O4200       O  0.54884637  0.78099338  0.89984748    -0.50750
C4201       C  0.55499646  0.75786514  0.89490851     0.72590
O4202       O  0.92381964  0.73041009  0.98719290    -0.59090
O4203       O  0.94852132  0.70602602  0.02991042    -0.51070
C4204       C  0.92565688  0.71194505  0.01126916     0.74390
O4205       O  0.94863086  0.79940368  0.91449923    -0.70480
O4206       O  0.49140927  0.82067556  0.90294333    -0.49160
C4207       C  0.96297394  0.81880414  0.90004853     0.75780
O4208       O  0.52237186  0.68206313  0.99502291    -0.65810
O4209       O  0.00806713  0.68307415  0.04212191    -0.53010
C4210       C  0.51346960  0.67137256  0.02192837     0.74160
Zr4211     Zr  0.53198891  0.72448267  0.96429003     2.77540
O4212       O  0.51340064  0.69482541  0.93037904    -0.96560
O4213       O  0.58100955  0.70548313  0.97004519    -0.77380
Zr4214     Zr  0.95584444  0.76228573  0.95773837     2.70070
O4215       O  0.94314418  0.73839189  0.91554507    -0.78630
O4216       O  0.90544745  0.77784265  0.95621452    -0.97710
Zr4217     Zr  0.99453970  0.72814663  0.03575656     2.21500
Zr4218     Zr  0.52775933  0.79865228  0.94381239     2.11130
O4219       O  0.50271115  0.75974717  0.93597746    -2.46400
O4220       O  0.98498904  0.72590895  0.98193100    -0.78420
O4221       O  0.55728758  0.76324248  0.97073697    -0.70620
O4222       O  0.96230104  0.76302813  0.01184897    -2.31580
O4223       O  0.54071504  0.72784407  0.01755326    -2.27780
O4224       O  0.97975869  0.80031867  0.96821719    -0.72380
H4225       H  0.54329429  0.81866618  0.00061416     0.79620
H4226       H  0.94305741  0.76208253  0.02012063     0.80710
H4227       H  0.49988474  0.75877492  0.91394039     0.82930
H4228       H  0.55198549  0.71335653  0.02920718     0.80540
H4229       H  0.92417661  0.80876355  0.02830038     0.43570
H4230       H  0.90730389  0.79642207  0.95767553     0.42540
H4231       H  0.94534485  0.71994258  0.92558004     0.42220
H4232       H  0.50426269  0.70606898  0.91147295     0.40160
H4233       H  0.59432051  0.71972806  0.97403541     0.43290
H4234       H  0.60615254  0.72752045  0.03627049     0.38070
H4235       H  0.55969721  0.79962287  0.07080392     0.44190
H4236       H  0.51913567  0.83827255  0.04981072     0.40600
H4237       H  0.53115689  0.68759916  0.92303981     0.45520
H4238       H  0.62058117  0.75135849  0.04851514     0.44250
H4239       H  0.98116011  0.84087256  0.05922770     0.44380
H4240       H  0.89740047  0.77774315  0.93446859     0.44740
O4241       O  0.83847181  0.57321837  0.81868928    -0.74130
O4242       O  0.84497136  0.61672760  0.81598370    -0.53040
C4243       C  0.83422573  0.59489973  0.82867237     0.79600
O4244       O  0.97820720  0.56297173  0.74240260    -0.58730
O4245       O  0.95428685  0.54572611  0.70341114    -0.51760
C4246       C  0.97715193  0.54871686  0.72104655     0.71610
O4247       O  0.94695510  0.59985694  0.81937596    -0.73290
O4248       O  0.89938576  0.60827822  0.82594905    -0.53850
C4249       C  0.92489150  0.59821399  0.83628617     0.77610
O4250       O  0.87034121  0.51615461  0.75944850    -0.58430
O4251       O  0.89933791  0.52200870  0.71739617    -0.51550
C4252       C  0.88520019  0.50800969  0.73909892     0.74210
Zr4253     Zr  0.86410856  0.55703818  0.77532995     2.54710
O4254       O  0.88062225  0.52774123  0.82328492    -0.79000
O4255       O  0.81515930  0.53811855  0.77259385    -0.92420
Zr4256     Zr  0.94621342  0.58911066  0.76798997     2.64680
O4257       O  0.97649981  0.55816101  0.80508206    -0.97370
O4258       O  0.98723362  0.61940332  0.76242305    -0.79430
O4259       O  0.89849264  0.58697953  0.78750017    -0.82790
O4260       O  0.91274131  0.55742166  0.75492513    -2.17500
O4261       O  0.83356961  0.57001631  0.66315683    -0.66180
O4262       O  0.87724288  0.55059896  0.65876974    -0.50750
C4263       C  0.84950733  0.55368618  0.65203570     0.72590
O4264       O  0.90610514  0.68041636  0.71559675    -0.59090
O4265       O  0.88980180  0.67349948  0.76509453    -0.51070
C4266       C  0.89892427  0.68831150  0.74034414     0.74390
O4267       O  0.94852931  0.62922069  0.66496460    -0.70480
O4268       O  0.94176758  0.58753059  0.65792970    -0.49160
C4269       C  0.95456198  0.61004092  0.65233319     0.75780
O4270       O  0.80765014  0.63495519  0.71649554    -0.65810
O4271       O  0.82888976  0.64891597  0.75988154    -0.53010
C4272       C  0.80805632  0.64840567  0.73864312     0.74160
Zr4273     Zr  0.83767856  0.60378302  0.69766678     2.77540
O4274       O  0.82500920  0.63259599  0.64804913    -0.96560
O4275       O  0.78736204  0.58771193  0.69894527    -0.77380
Zr4276     Zr  0.91350036  0.64025507  0.69782364     2.70070
O4277       O  0.89270955  0.66529454  0.64865301    -0.78630
O4278       O  0.95534272  0.66977885  0.69589625    -0.97710
Zr4279     Zr  0.87571742  0.62747233  0.77276012     2.21500
Zr4280     Zr  0.90777357  0.56738476  0.69851358     2.11130
O4281       O  0.88468289  0.60792287  0.67722502    -2.46400
O4282       O  0.86660224  0.63649394  0.71696885    -0.78420
O4283       O  0.86006566  0.56413699  0.71920522    -0.70620
O4284       O  0.92353209  0.63071383  0.75303745    -2.31580
O4285       O  0.84246185  0.59700329  0.75387370    -2.27780
O4286       O  0.93835358  0.60021514  0.71383123    -0.72380
H4287       H  0.92223693  0.54087186  0.76227418     0.79620
H4288       H  0.93531849  0.64392515  0.76073296     0.80710
H4289       H  0.88350613  0.61099740  0.65450917     0.82930
H4290       H  0.82329921  0.59763418  0.76205288     0.80540
H4291       H  0.98989941  0.62510912  0.78299498     0.43570
H4292       H  0.97292569  0.65858824  0.70173528     0.42540
H4293       H  0.87355927  0.67154814  0.65399915     0.42220
H4294       H  0.83035304  0.62282937  0.63166127     0.40160
H4295       H  0.78907197  0.56985933  0.71114305     0.43290
H4296       H  0.80150339  0.55242793  0.77379074     0.38070
H4297       H  0.88194693  0.53867381  0.83971534     0.44190
H4298       H  0.97240795  0.54097680  0.79932226     0.40600
H4299       H  0.80323700  0.63294172  0.64643356     0.45520
H4300       H  0.81393190  0.52617375  0.79295372     0.44250
H4301       H  0.99711088  0.56210555  0.79990844     0.44380
H4302       H  0.95686526  0.67723945  0.67337611     0.44740
O4303       O  0.84876902  0.83815434  0.81765478    -0.74130
O4304       O  0.85583408  0.88197935  0.80820417    -0.53040
C4305       C  0.84521334  0.86145866  0.82372342     0.79600
O4306       O  0.98663408  0.81711501  0.74779610    -0.58730
O4307       O  0.96329006  0.79713147  0.71059653    -0.51760
C4308       C  0.98593741  0.80191750  0.72761079     0.71610
O4309       O  0.95982394  0.87187318  0.80772524    -0.73290
O4310       O  0.91337549  0.87591818  0.81995314    -0.53850
C4311       C  0.94103022  0.87146519  0.82813014     0.77610
O4312       O  0.87731692  0.77060854  0.76939639    -0.58430
O4313       O  0.90438527  0.77103086  0.72643881    -0.51550
C4314       C  0.89015136  0.75932112  0.74992925     0.74210
Zr4315     Zr  0.87182511  0.81450312  0.77885347     2.54710
O4316       O  0.88493561  0.78801572  0.82986884    -0.79000
O4317       O  0.82202352  0.79715469  0.77880125    -0.92420
Zr4318     Zr  0.95362582  0.84295936  0.77101813     2.64680
O4319       O  0.96593841  0.80988986  0.81702475    -0.97370
O4320       O  0.00357985  0.85956377  0.77447995    -0.79430
O4321       O  0.90653195  0.84482840  0.79131517    -0.82790
O4322       O  0.91987809  0.81096310  0.75955930    -2.17500
O4323       O  0.84270958  0.82117297  0.66532424    -0.66180
O4324       O  0.88409004  0.79693448  0.66605352    -0.50750
C4325       C  0.85711330  0.80233988  0.65708522     0.72590
O4326       O  0.91931497  0.93245043  0.70404393    -0.59090
O4327       O  0.90135112  0.92919697  0.75256882    -0.51070
C4328       C  0.91039702  0.94209958  0.72687874     0.74390
O4329       O  0.96517635  0.86720790  0.67399946    -0.70480
O4330       O  0.94033770  0.83624506  0.65454969    -0.49160
C4331       C  0.95796582  0.85604300  0.65111600     0.75780
O4332       O  0.81545915  0.88916135  0.71285035    -0.65810
O4333       O  0.83818177  0.90643416  0.75301818    -0.53010
C4334       C  0.81615844  0.90428999  0.73336401     0.74160
Zr4335     Zr  0.84759812  0.85751227  0.69622236     2.77540
O4336       O  0.84064627  0.88608468  0.64538491    -0.96560
O4337       O  0.79622027  0.84477350  0.69173188    -0.77380
Zr4338     Zr  0.92699879  0.88965832  0.69305524     2.70070
O4339       O  0.91258878  0.90812073  0.63863914    -0.78630
O4340       O  0.96856975  0.91929183  0.68569080    -0.97710
Zr4341     Zr  0.88617237  0.88510287  0.76640936     2.21500
Zr4342     Zr  0.91533732  0.81619439  0.70315278     2.11130
O4343       O  0.89489915  0.85705905  0.67717513    -2.46400
O4344       O  0.87915149  0.89070363  0.71060086    -0.78420
O4345       O  0.86756432  0.81785570  0.72288081    -0.70620
O4346       O  0.93425019  0.88464311  0.74826518    -2.31580
O4347       O  0.85190473  0.85375454  0.75204849    -2.27780
O4348       O  0.94792376  0.84900753  0.71617483    -0.72380
H4349       H  0.92851292  0.79435566  0.76863160     0.79620
H4350       H  0.94655056  0.89832844  0.75411934     0.80710
H4351       H  0.89314577  0.85845425  0.65459176     0.82930
H4352       H  0.83279485  0.85569415  0.75979021     0.80540
H4353       H  0.00371800  0.87500891  0.75755587     0.43570
H4354       H  0.98573075  0.90921471  0.69640004     0.42540
H4355       H  0.89848430  0.92203926  0.64008955     0.42220
H4356       H  0.83950596  0.87428339  0.62989384     0.40160
H4357       H  0.79370449  0.83152236  0.71077028     0.43290
H4358       H  0.80907444  0.81243932  0.77724978     0.38070
H4359       H  0.90669926  0.78739883  0.83106801     0.44190
H4360       H  0.97201069  0.79460444  0.80847576     0.40600
H4361       H  0.82039635  0.89287650  0.64497028     0.45520
H4362       H  0.82026562  0.78756756  0.80048298     0.44250
H4363       H  0.98438123  0.81613061  0.82646972     0.44380
H4364       H  0.97198342  0.92160498  0.66301888     0.44740
O4365       O  0.59188841  0.70402755  0.82259302    -0.74130
O4366       O  0.59829555  0.74775160  0.81578592    -0.53040
C4367       C  0.58780888  0.72679730  0.83015153     0.79600
O4368       O  0.73144615  0.68911554  0.74894895    -0.58730
O4369       O  0.70762130  0.67043013  0.71108431    -0.51760
C4370       C  0.73043764  0.67450095  0.72810158     0.71610
O4371       O  0.69979891  0.72559684  0.82584170    -0.73290
O4372       O  0.65201927  0.73483951  0.83013871    -0.53850
C4373       C  0.67743290  0.72561861  0.84206773     0.77610
O4374       O  0.62043597  0.64215167  0.76656855    -0.58430
O4375       O  0.64960794  0.64633297  0.72470263    -0.51550
C4376       C  0.63434781  0.63304617  0.74626067     0.74210
Zr4377     Zr  0.61586588  0.68370311  0.78085775     2.54710
O4378       O  0.62966840  0.65471089  0.82992940    -0.79000
O4379       O  0.56605727  0.66647173  0.77897451    -0.92420
Zr4380     Zr  0.69896486  0.71345372  0.77520292     2.64680
O4381       O  0.72409234  0.67885700  0.81227994    -0.97370
O4382       O  0.74276521  0.74059994  0.77400826    -0.79430
O4383       O  0.65120766  0.71210744  0.79434767    -0.82790
O4384       O  0.66482243  0.68250761  0.76143087    -2.17500
O4385       O  0.58815550  0.69285292  0.66939497    -0.66180
O4386       O  0.63171904  0.67299043  0.66612839    -0.50750
C4387       C  0.60392312  0.67561431  0.65950622     0.72590
O4388       O  0.65629352  0.80516254  0.72213016    -0.59090
O4389       O  0.64592194  0.79595031  0.77349207    -0.51070
C4390       C  0.65058553  0.81180518  0.74836648     0.74390
O4391       O  0.70499677  0.75421802  0.67191090    -0.70480
O4392       O  0.69383123  0.71354761  0.66282601    -0.49160
C4393       C  0.70793892  0.73559145  0.65731349     0.75780
O4394       O  0.56332311  0.76160700  0.71790768    -0.65810
O4395       O  0.58468773  0.77627543  0.76069075    -0.53010
C4396       C  0.56394998  0.77575574  0.73932094     0.74160
Zr4397     Zr  0.59264333  0.72932576  0.70056054     2.77540
O4398       O  0.58407818  0.75716721  0.64942530    -0.96560
O4399       O  0.54100030  0.71709251  0.69787618    -0.77380
Zr4400     Zr  0.66921121  0.76556024  0.70360125     2.70070
O4401       O  0.65293655  0.79166846  0.65327177    -0.78630
O4402       O  0.71162357  0.79408103  0.70572858    -0.97710
Zr4403     Zr  0.63005841  0.75253869  0.77574964     2.21500
Zr4404     Zr  0.66134498  0.69181997  0.70496502     2.11130
O4405       O  0.64038583  0.73304580  0.68238430    -2.46400
O4406       O  0.62157248  0.76201763  0.72014602    -0.78420
O4407       O  0.61334473  0.68976274  0.72459060    -0.70620
O4408       O  0.67843465  0.75563933  0.75858442    -2.31580
O4409       O  0.59556254  0.72331615  0.75686434    -2.27780
O4410       O  0.69210914  0.72448914  0.72080669    -0.72380
H4411       H  0.67355865  0.66567608  0.76905369     0.79620
H4412       H  0.69018928  0.76863928  0.76675820     0.80710
H4413       H  0.63992227  0.73594325  0.65969038     0.82930
H4414       H  0.57628469  0.72484759  0.76443727     0.80540
H4415       H  0.74043909  0.75145275  0.79018337     0.43570
H4416       H  0.72863384  0.78235791  0.71249218     0.42540
H4417       H  0.63372818  0.79883990  0.65705228     0.42220
H4418       H  0.58517548  0.74537400  0.63406577     0.40160
H4419       H  0.53939357  0.70237650  0.71554518     0.43290
H4420       H  0.55311276  0.68139875  0.77959761     0.38070
H4421       H  0.65066059  0.65074591  0.82830800     0.44190
H4422       H  0.71991359  0.66271968  0.80396095     0.40600
H4423       H  0.56302568  0.76195082  0.64843472     0.45520
H4424       H  0.56447024  0.65512978  0.79969791     0.44250
H4425       H  0.74535202  0.68204812  0.80984019     0.44380
H4426       H  0.71469860  0.80178986  0.68357348     0.44740
O4427       O  0.59268285  0.94450414  0.80996346    -0.74130
O4428       O  0.59261069  0.98857936  0.80444592    -0.53040
C4429       C  0.58540421  0.96602940  0.81861842     0.79600
O4430       O  0.73510916  0.94448801  0.74333437    -0.58730
O4431       O  0.71477214  0.92828729  0.70145492    -0.51760
C4432       C  0.73636313  0.93118924  0.72113118     0.71610
O4433       O  0.69354021  0.99564423  0.80358339    -0.73290
O4434       O  0.64771385  0.49710494  0.81778244    -0.53850
C4435       C  0.67494312  0.49171843  0.82531732     0.77610
O4436       O  0.63285978  0.89162295  0.74730320    -0.58430
O4437       O  0.65984423  0.89995063  0.70365995    -0.51550
C4438       C  0.64705663  0.88476336  0.72517808     0.74210
Zr4439     Zr  0.61996073  0.93112300  0.76635870     2.54710
O4440       O  0.63711486  0.90145008  0.81372880    -0.79000
O4441       O  0.57322537  0.90853408  0.76284601    -0.92420
Zr4442     Zr  0.69729991  0.96819659  0.76473611     2.64680
O4443       O  0.71079570  0.93524878  0.81050772    -0.97370
O4444       O  0.74470416  0.98921096  0.77047347    -0.79430
O4445       O  0.64904893  0.96384131  0.78302017    -0.82790
O4446       O  0.66877367  0.93492937  0.74768517    -2.17500
O4447       O  0.58977494  0.94252732  0.65843517    -0.66180
O4448       O  0.63481976  0.92563776  0.65342475    -0.50750
C4449       C  0.60665784  0.92656009  0.64792315     0.72590
O4450       O  0.65613055  0.55790918  0.70777287    -0.59090
O4451       O  0.63590016  0.54997581  0.75538614    -0.51070
C4452       C  0.64630639  0.56509378  0.73171988     0.74390
O4453       O  0.70238962  0.50970222  0.65812082    -0.70480
O4454       O  0.69619288  0.96769556  0.64927146    -0.49160
C4455       C  0.70741596  0.99079904  0.64361049     0.75780
O4456       O  0.55684826  0.50803620  0.70878995    -0.65810
O4457       O  0.57705617  0.52362189  0.75137368    -0.53010
C4458       C  0.55604409  0.52174093  0.73073356     0.74160
Zr4459     Zr  0.59081861  0.97876449  0.68896433     2.77540
O4460       O  0.58238916  0.50887275  0.63959603    -0.96560
O4461       O  0.54079046  0.96238702  0.68508932    -0.77380
Zr4462     Zr  0.66690370  0.51811104  0.69191404     2.70070
O4463       O  0.64812479  0.54347486  0.64204996    -0.78630
O4464       O  0.70852840  0.54742917  0.69457457    -0.97710
Zr4465     Zr  0.62484638  0.50378757  0.76403531     2.21500
Zr4466     Zr  0.66516912  0.94578676  0.69132527     2.11130
O4467       O  0.63865498  0.98458422  0.66953842    -2.46400
O4468       O  0.61862773  0.51412550  0.70837247    -0.78420
O4469       O  0.61686871  0.94055858  0.71052646    -0.70620
O4470       O  0.67365958  0.50839106  0.74707014    -2.31580
O4471       O  0.59476296  0.97006470  0.74490762    -2.27780
O4472       O  0.69245630  0.97936835  0.70950330    -0.72380
H4473       H  0.67933996  0.91883407  0.75451476     0.79620
H4474       H  0.68401074  0.52259584  0.75427470     0.80710
H4475       H  0.63950281  0.48858913  0.64791691     0.82930
H4476       H  0.57529156  0.96942287  0.75263213     0.80540
H4477       H  0.74383225  0.50577292  0.75822861     0.43570
H4478       H  0.72596605  0.53604374  0.70030504     0.42540
H4479       H  0.62854666  0.54955839  0.64638068     0.42220
H4480       H  0.58532599  0.49795648  0.62361520     0.40160
H4481       H  0.53918681  0.94941400  0.70456511     0.43290
H4482       H  0.55807132  0.92185757  0.76322735     0.38070
H4483       H  0.65150172  0.91167972  0.82450969     0.44190
H4484       H  0.70979420  0.91859918  0.80276635     0.40600
H4485       H  0.56088613  0.51183091  0.63837440     0.45520
H4486       H  0.57240292  0.89678094  0.78339578     0.44250
H4487       H  0.73207192  0.93800614  0.81486598     0.44380
H4488       H  0.71098420  0.55605904  0.67260602     0.44740
O4489       O  0.73963320  0.52761108  0.39975355    -0.74130
O4490       O  0.71881026  0.98845030  0.41234199    -0.53040
C4491       C  0.71793983  0.51251772  0.39803280     0.79600
O4492       O  0.86303763  0.53536550  0.47662193    -0.58730
O4493       O  0.84357337  0.55423743  0.51436143    -0.51760
C4494       C  0.86439397  0.55031750  0.49710412     0.71610
O4495       O  0.82560379  0.97805812  0.41678162    -0.73290
O4496       O  0.78335606  0.95488665  0.41384152    -0.53850
C4497       C  0.80942617  0.96121993  0.40517270     0.77610
O4498       O  0.76212485  0.58707382  0.45944005    -0.58430
O4499       O  0.78259566  0.58126692  0.50939478    -0.51550
C4500       C  0.77199914  0.59546881  0.48417643     0.74210
Zr4501     Zr  0.75018900  0.54472175  0.44640524     2.54710
O4502       O  0.75022071  0.57928746  0.40062962    -0.79000
O4503       O  0.69973795  0.55695765  0.45332880    -0.92420
Zr4504     Zr  0.82731893  0.50834085  0.45474679     2.64680
O4505       O  0.83942775  0.53804965  0.40732085    -0.97370
O4506       O  0.87413121  0.98704000  0.45698559    -0.79430
O4507       O  0.77884839  0.51079173  0.43212230    -0.82790
O4508       O  0.79943388  0.54352999  0.46639928    -2.17500
O4509       O  0.72344694  0.52601363  0.55657485    -0.66180
O4510       O  0.76985917  0.53751245  0.56983517    -0.50750
C4511       C  0.74356314  0.53054017  0.57662614     0.72590
O4512       O  0.79249601  0.92313170  0.52684114    -0.59090
O4513       O  0.76647569  0.92542072  0.47932447    -0.51070
C4514       C  0.77917844  0.91298851  0.50503493     0.74390
O4515       O  0.82739604  0.98783682  0.58163740    -0.70480
O4516       O  0.82325486  0.53145208  0.56874611    -0.49160
C4517       C  0.83087833  0.01139689  0.58789689     0.75780
O4518       O  0.69186967  0.96641593  0.50172055    -0.65810
O4519       O  0.71067567  0.94761374  0.46383494    -0.53010
C4520       C  0.69057919  0.95062746  0.48233121     0.74160
Zr4521     Zr  0.72511516  0.99650991  0.52119111     2.77540
O4522       O  0.70789715  0.96272825  0.56223348    -0.96560
O4523       O  0.67654632  0.51510063  0.51463596    -0.77380
Zr4524     Zr  0.80608998  0.96593777  0.53591081     2.70070
O4525       O  0.79978952  0.93608704  0.58499539    -0.78630
O4526       O  0.85585953  0.94973374  0.53508301    -0.97710
Zr4527     Zr  0.75660928  0.97012882  0.45488693     2.21500
Zr4528     Zr  0.79485003  0.53649195  0.52167014     2.11130
O4529       O  0.77317653  0.99641403  0.54577956    -2.46400
O4530       O  0.75723108  0.96457184  0.51124569    -0.78420
O4531       O  0.74566684  0.53779127  0.50093061    -0.70620
O4532       O  0.80568595  0.96903286  0.47952981    -2.31580
O4533       O  0.72759818  0.50436147  0.46608715    -2.27780
O4534       O  0.82660629  0.00437468  0.51073363    -0.72380
H4535       H  0.80908151  0.55979412  0.45915653     0.79620
H4536       H  0.81657608  0.95461135  0.47487516     0.80710
H4537       H  0.77256485  0.99306385  0.56834264     0.82930
H4538       H  0.70748354  0.50394396  0.45780232     0.80540
H4539       H  0.87202465  0.97024122  0.47131872     0.43570
H4540       H  0.86807638  0.96013802  0.54790305     0.42540
H4541       H  0.77962943  0.93953702  0.59053324     0.42220
H4542       H  0.72567554  0.95521830  0.57470546     0.40160
H4543       H  0.67962415  0.53408046  0.50995756     0.43290
H4544       H  0.68648229  0.54531297  0.44339721     0.38070
H4545       H  0.77052687  0.57933157  0.39369026     0.44190
H4546       H  0.83938145  0.55544937  0.41317296     0.40600
H4547       H  0.69688421  0.97167376  0.57613417     0.45520
H4548       H  0.69675933  0.57440781  0.44035440     0.44250
H4549       H  0.86040858  0.53453499  0.40496510     0.44380
H4550       H  0.85566251  0.93215661  0.54806938     0.44740
O4551       O  0.71430944  0.78175899  0.41892978    -0.74130
O4552       O  0.71827066  0.73863208  0.41788813    -0.53040
C4553       C  0.70617031  0.76149591  0.40865484     0.79600
O4554       O  0.86130182  0.78463448  0.48220621    -0.58730
O4555       O  0.84321940  0.80354564  0.52071315    -0.51760
C4556       C  0.86318430  0.79993142  0.50219497     0.71610
O4557       O  0.82632485  0.72440564  0.42728287    -0.73290
O4558       O  0.78310032  0.70283299  0.42296820    -0.53850
C4559       C  0.81001771  0.70743704  0.41618533     0.77610
O4560       O  0.76106264  0.83502866  0.46645692    -0.58430
O4561       O  0.78154673  0.83047113  0.51640510    -0.51550
C4562       C  0.77085951  0.84407410  0.49054377     0.74210
Zr4563     Zr  0.75002665  0.79276771  0.45532811     2.54710
O4564       O  0.76386324  0.81596194  0.40449072    -0.79000
O4565       O  0.70644094  0.81926403  0.45563650    -0.92420
Zr4566     Zr  0.82602153  0.75687327  0.46193917     2.64680
O4567       O  0.83699362  0.78571292  0.41346165    -0.97370
O4568       O  0.87475347  0.73776444  0.46384440    -0.79430
O4569       O  0.77754311  0.75967436  0.43868171    -0.82790
O4570       O  0.79894758  0.79164791  0.47514918    -2.17500
O4571       O  0.72445520  0.77035712  0.56990816    -0.66180
O4572       O  0.77083556  0.78324688  0.58101431    -0.50750
C4573       C  0.74519488  0.77473349  0.58925986     0.72590
O4574       O  0.79528989  0.67137437  0.52856201    -0.59090
O4575       O  0.76615722  0.67536722  0.48270349    -0.51070
C4576       C  0.78084610  0.66214955  0.50642289     0.74390
O4577       O  0.83079278  0.73576819  0.58737763    -0.70480
O4578       O  0.82573783  0.77974612  0.57578940    -0.49160
C4579       C  0.83449887  0.75921816  0.59409939     0.75780
O4580       O  0.69187326  0.71636988  0.51071821    -0.65810
O4581       O  0.71005308  0.69782240  0.47226939    -0.53010
C4582       C  0.69032492  0.70080839  0.49114697     0.74160
Zr4583     Zr  0.72699178  0.74417766  0.53072519     2.77540
O4584       O  0.71511233  0.70571719  0.56840581    -0.96560
O4585       O  0.67824279  0.76218874  0.53255604    -0.77380
Zr4586     Zr  0.80742508  0.71379410  0.54234001     2.70070
O4587       O  0.79956670  0.68384667  0.59101282    -0.78630
O4588       O  0.85729031  0.69762839  0.54199587    -0.97710
Zr4589     Zr  0.75575640  0.72009046  0.46188316     2.21500
Zr4590     Zr  0.79485046  0.78517988  0.53056665     2.11130
O4591       O  0.77532334  0.74422154  0.55393701    -2.46400
O4592       O  0.75821801  0.71276179  0.51846950    -0.78420
O4593       O  0.74563413  0.78587684  0.51012416    -0.70620
O4594       O  0.80516532  0.71818053  0.48603252    -2.31580
O4595       O  0.72710946  0.75318377  0.47604082    -2.27780
O4596       O  0.82672009  0.75313000  0.51773421    -0.72380
H4597       H  0.80838466  0.80793485  0.46751774     0.79620
H4598       H  0.81589300  0.70379106  0.48110963     0.80710
H4599       H  0.77541212  0.73994610  0.57653249     0.82930
H4600       H  0.70674722  0.75291457  0.46857450     0.80540
H4601       H  0.87377489  0.72143562  0.47929356     0.43570
H4602       H  0.86985962  0.71020445  0.55119556     0.42540
H4603       H  0.77989072  0.67629321  0.58760684     0.42220
H4604       H  0.73304919  0.70132968  0.58234797     0.40160
H4605       H  0.67666531  0.77667579  0.51439921     0.43290
H4606       H  0.69014492  0.80674917  0.45993100     0.38070
H4607       H  0.78558911  0.81688667  0.40652222     0.44190
H4608       H  0.84189367  0.80251243  0.41989536     0.40600
H4609       H  0.70012879  0.71120038  0.58146262     0.45520
H4610       H  0.70242340  0.82789143  0.43351176     0.44250
H4611       H  0.85596971  0.77928399  0.40788691     0.44380
H4612       H  0.85816047  0.68169284  0.55822827     0.44740
O4613       O  0.96920241  0.66547218  0.41784080    -0.74130
O4614       O  0.96896814  0.62223898  0.41552474    -0.53040
C4615       C  0.95891835  0.64601741  0.40708586     0.79600
O4616       O  0.61339437  0.65862856  0.48706686    -0.58730
O4617       O  0.59501560  0.67617567  0.52639799    -0.51760
C4618       C  0.61521486  0.67302432  0.50798316     0.71610
O4619       O  0.57787905  0.60359492  0.42580710    -0.73290
O4620       O  0.53449989  0.58266708  0.42029189    -0.53850
C4621       C  0.56128821  0.58760817  0.41321462     0.77610
O4622       O  0.51375946  0.71055152  0.48431697    -0.58430
O4623       O  0.53537755  0.70022324  0.53357334    -0.51550
C4624       C  0.52445499  0.71634016  0.51056490     0.74210
Zr4625     Zr  0.00362447  0.67335189  0.45747914     2.54710
O4626       O  0.52194950  0.70067357  0.41554120    -0.79000
O4627       O  0.96026993  0.69998630  0.45850486    -0.92420
Zr4628     Zr  0.57771173  0.63311506  0.46425606     2.64680
O4629       O  0.58822757  0.66442626  0.41757093    -0.97370
O4630       O  0.62629109  0.61435586  0.46370096    -0.79430
O4631       O  0.52940482  0.63854211  0.44143503    -0.82790
O4632       O  0.55202114  0.66759529  0.48032584    -2.17500
O4633       O  0.97434544  0.64656412  0.56865807    -0.66180
O4634       O  0.52306700  0.65343466  0.58516732    -0.50750
C4635       C  0.99508523  0.64932482  0.58884796     0.72590
O4636       O  0.54371622  0.54628617  0.52700250    -0.59090
O4637       O  0.51631813  0.55193941  0.47993176    -0.51070
C4638       C  0.52979488  0.53790237  0.50407124     0.74390
O4639       O  0.57851047  0.60712091  0.59119108    -0.70480
O4640       O  0.58019731  0.65094986  0.57812859    -0.49160
C4641       C  0.58478936  0.63034465  0.59775691     0.75780
O4642       O  0.94304620  0.59133472  0.50737227    -0.65810
O4643       O  0.95985894  0.57737320  0.46494405    -0.53010
C4644       C  0.94088355  0.57789644  0.48535669     0.74160
Zr4645     Zr  0.97537457  0.62221308  0.52734436     2.77540
O4646       O  0.94913926  0.59135185  0.56472737    -0.96560
O4647       O  0.92969549  0.64665884  0.51455777    -0.77380
Zr4648     Zr  0.55700684  0.58714633  0.54302897     2.70070
O4649       O  0.54777818  0.55486874  0.58920885    -0.78630
O4650       O  0.60656730  0.57009550  0.54358308    -0.97710
Zr4651     Zr  0.50754652  0.59788417  0.46120173     2.21500
Zr4652     Zr  0.54710759  0.65663969  0.53545021     2.11130
O4653       O  0.52447267  0.61634286  0.55581149    -2.46400
O4654       O  0.00634197  0.59042355  0.51493806    -0.78420
O4655       O  0.99765504  0.66347165  0.51179307    -0.70620
O4656       O  0.55635563  0.59394172  0.48627570    -2.31580
O4657       O  0.97862558  0.63329326  0.47345275    -2.27780
O4658       O  0.57864114  0.62581192  0.52051091    -0.72380
H4659       H  0.56192719  0.68396664  0.47453792     0.79620
H4660       H  0.56684207  0.57982748  0.48034501     0.80710
H4661       H  0.52366049  0.61077775  0.57820015     0.82930
H4662       H  0.95832468  0.63392525  0.46561923     0.80540
H4663       H  0.62592893  0.59800722  0.47920197     0.43570
H4664       H  0.61890140  0.58103744  0.55559588     0.42540
H4665       H  0.52651276  0.55654515  0.59197361     0.42220
H4666       H  0.96439883  0.57987421  0.57710553     0.40160
H4667       H  0.93474009  0.66443331  0.51779592     0.43290
H4668       H  0.94349614  0.68777415  0.45987265     0.38070
H4669       H  0.52730510  0.68904607  0.40112217     0.44190
H4670       H  0.58897098  0.68138110  0.42460811     0.40600
H4671       H  0.94095237  0.60146740  0.57938634     0.45520
H4672       H  0.95777903  0.71056461  0.43714429     0.44250
H4673       H  0.60888883  0.66087685  0.41382427     0.44380
H4674       H  0.60611698  0.55299082  0.55763173     0.44740
O4675       O  0.96607111  0.90859833  0.41157470    -0.74130
O4676       O  0.96794729  0.86538767  0.41069164    -0.53040
C4677       C  0.95701019  0.88850011  0.40140088     0.79600
O4678       O  0.61177205  0.90922509  0.47664214    -0.58730
O4679       O  0.59375769  0.92783860  0.51542563    -0.51760
C4680       C  0.61396873  0.92394901  0.49728482     0.71610
O4681       O  0.57541038  0.85062474  0.42011640    -0.73290
O4682       O  0.53125717  0.83063379  0.41513541    -0.53850
C4683       C  0.55848017  0.83407885  0.40895146     0.77610
O4684       O  0.51014944  0.96199829  0.46458672    -0.58430
O4685       O  0.53284839  0.95574758  0.51361161    -0.51550
C4686       C  0.52104627  0.97014757  0.48894048     0.74210
Zr4687     Zr  0.50008778  0.92060882  0.44962741     2.54710
O4688       O  0.51640179  0.94578729  0.40086263    -0.79000
O4689       O  0.95710378  0.94718406  0.44544864    -0.92420
Zr4690     Zr  0.57529700  0.88317112  0.45485988     2.64680
O4691       O  0.58700591  0.91220253  0.40679266    -0.97370
O4692       O  0.62381250  0.86370056  0.45651942    -0.79430
O4693       O  0.52680500  0.88778610  0.43143416    -0.82790
O4694       O  0.54910513  0.91806973  0.46932949    -2.17500
O4695       O  0.97349372  0.90015243  0.56054256    -0.66180
O4696       O  0.52051994  0.90764211  0.57550931    -0.50750
C4697       C  0.49403349  0.90024629  0.58198501     0.72590
O4698       O  0.53898391  0.79703129  0.51618639    -0.59090
O4699       O  0.51187594  0.80381336  0.46881994    -0.51070
C4700       C  0.52472297  0.78942296  0.49247567     0.74390
O4701       O  0.58010492  0.85886848  0.57937392    -0.70480
O4702       O  0.57761410  0.90304290  0.56802040    -0.49160
C4703       C  0.58533713  0.88217704  0.58615190     0.75780
O4704       O  0.93990975  0.84385036  0.50383012    -0.65810
O4705       O  0.95687136  0.82669580  0.46365393    -0.53010
C4706       C  0.93758413  0.82914837  0.48324916     0.74160
Zr4707     Zr  0.97582337  0.87083846  0.52457608     2.77540
O4708       O  0.97254920  0.83205177  0.56482471    -0.96560
O4709       O  0.92588521  0.88421602  0.53089705    -0.77380
Zr4710     Zr  0.55507214  0.83802150  0.53382147     2.70070
O4711       O  0.54663859  0.80699910  0.58144469    -0.78630
O4712       O  0.60382916  0.81974233  0.53277731    -0.97710
Zr4713     Zr  0.50387975  0.84850787  0.45359576     2.21500
Zr4714     Zr  0.54486733  0.91019639  0.52477534     2.11130
O4715       O  0.52476224  0.86923880  0.54723891    -2.46400
O4716       O  0.50579915  0.83885553  0.51003770    -0.78420
O4717       O  0.49557896  0.91205001  0.50451135    -0.70620
O4718       O  0.55324753  0.84453150  0.47757086    -2.31580
O4719       O  0.97636919  0.88072280  0.46960418    -2.27780
O4720       O  0.57532359  0.87762204  0.51073712    -0.72380
H4721       H  0.55885450  0.93433573  0.46234256     0.79620
H4722       H  0.56337534  0.82998584  0.47225703     0.80710
H4723       H  0.52517999  0.86488780  0.56984661     0.82930
H4724       H  0.95606596  0.88102718  0.46177059     0.80540
H4725       H  0.62286559  0.84756847  0.47230480     0.43570
H4726       H  0.61706413  0.83073856  0.54379873     0.42540
H4727       H  0.52667269  0.80010500  0.57774402     0.42220
H4728       H  0.98500341  0.83510619  0.58331729     0.40160
H4729       H  0.92100406  0.89735907  0.51185644     0.43290
H4730       H  0.94047065  0.93500288  0.44956503     0.38070
H4731       H  0.53267045  0.93559180  0.39502410     0.44190
H4732       H  0.59164798  0.92896545  0.41344572     0.40600
H4733       H  0.95205400  0.83141392  0.57126819     0.45520
H4734       H  0.95417053  0.95506120  0.42292287     0.44250
H4735       H  0.60616246  0.90586164  0.40158413     0.44380
H4736       H  0.60339518  0.80291261  0.54738631     0.44740
C4737       C  0.52568745  0.74327478  0.51491037    -0.15270
C4738       C  0.52254458  0.76216949  0.49029992    -0.30450
H4739       H  0.53108607  0.74761413  0.53821761     0.13750
H4740       H  0.51710019  0.75757417  0.46710085     0.14330
C4741       C  0.52999118  0.50975118  0.50604999    -0.15270
C4742       C  0.51964297  0.99814446  0.48751800    -0.30450
H4743       H  0.54014519  0.49818025  0.52730157     0.13750
H4744       H  0.50959611  0.00957513  0.46610661     0.14330
C4745       C  0.66371215  0.68553185  0.49038692    -0.15270
C4746       C  0.64251272  0.68723201  0.51023862    -0.30450
H4747       H  0.66139096  0.67301042  0.47293250     0.13750
H4748       H  0.64487267  0.69969849  0.52774861     0.14330
C4749       C  0.91073662  0.81398850  0.48241416    -0.15270
C4750       C  0.89031183  0.81466939  0.50342369    -0.30450
H4751       H  0.90778892  0.80208490  0.46434655     0.13750
H4752       H  0.89321843  0.82665005  0.52141036     0.14330
C4753       C  0.66374065  0.93527628  0.48116246    -0.15270
C4754       C  0.64177023  0.93769093  0.49989996    -0.30450
H4755       H  0.66172199  0.92236391  0.46413519     0.13750
H4756       H  0.64385259  0.95056975  0.51695987     0.14330
C4757       C  0.77911302  0.88467938  0.51009683    -0.15270
C4758       C  0.76953150  0.87217379  0.48721901    -0.30450
H4759       H  0.78815683  0.87402636  0.53246881     0.13750
H4760       H  0.76089081  0.88293450  0.46472023     0.14330
C4761       C  0.77103868  0.62339043  0.48344313    -0.15270
C4762       C  0.78153158  0.63406718  0.50792892    -0.30450
H4763       H  0.76165805  0.63542037  0.46211738     0.13750
H4764       H  0.79148150  0.62212137  0.52901628     0.14330
C4765       C  0.89185975  0.56419545  0.50102950    -0.15270
C4766       C  0.91438654  0.56236565  0.48299873    -0.30450
H4767       H  0.89320575  0.57676528  0.51846537     0.13750
H4768       H  0.91291430  0.55008333  0.46524827     0.14330
C4769       C  0.72913484  0.49815532  0.61963791    -0.15270
C4770       C  0.73643982  0.52327452  0.60926377    -0.30450
H4771       H  0.73563034  0.48332643  0.60709187     0.13750
H4772       H  0.73106479  0.53869526  0.62165541     0.14330
C4773       C  0.59155173  0.91018177  0.62635853    -0.15270
C4774       C  0.60047791  0.88810772  0.61626402    -0.30450
H4775       H  0.57056258  0.91848341  0.61625397     0.13750
H4776       H  0.61999779  0.87749733  0.62680380     0.14330
C4777       C  0.72756491  0.74180135  0.63112436    -0.15270
C4778       C  0.73921527  0.76598587  0.62244374    -0.30450
H4779       H  0.72912134  0.72781034  0.61600687     0.13750
H4780       H  0.73941351  0.78033851  0.63765445     0.14330
C4781       C  0.59729485  0.63655294  0.62894255    -0.15270
C4782       C  0.58881321  0.65963819  0.63724538    -0.30450
H4783       H  0.61526791  0.62510790  0.64189170     0.13750
H4784       H  0.56932180  0.66911235  0.62472405     0.14330
C4785       C  0.64816296  0.83927706  0.74980304    -0.15270
C4786       C  0.64956780  0.85733739  0.72404158    -0.30450
H4787       H  0.64438106  0.84473320  0.77228529     0.13750
H4788       H  0.65417752  0.85202231  0.70170084     0.14330
C4789       C  0.63268424  0.60494482  0.74886048    -0.15270
C4790       C  0.64796892  0.59290385  0.73072562    -0.30450
H4791       H  0.61878119  0.59398400  0.76602987     0.13750
H4792       H  0.66144156  0.60399993  0.71320691     0.14330
C4793       C  0.84124129  0.78759053  0.63424728    -0.15270
C4794       C  0.84931394  0.76522457  0.62429505    -0.30450
H4795       H  0.82135215  0.79733956  0.62309443     0.13750
H4796       H  0.86781345  0.75365096  0.63583712     0.14330
C4797       C  0.96660688  0.86902260  0.61956179    -0.15270
C4798       C  0.98695231  0.88845891  0.61459008    -0.30450
H4799       H  0.95394300  0.86387060  0.59965838     0.13750
H4800       H  0.50047899  0.89289566  0.63423081     0.14330
C4801       C  0.53826570  0.79183955  0.74029189    -0.15270
C4802       C  0.51338683  0.78856123  0.72323561    -0.30450
H4803       H  0.53911362  0.80509009  0.75695369     0.13750
H4804       H  0.01209689  0.77508807  0.70763947     0.14330
C4805       C  0.78933282  0.91974190  0.73550647    -0.15270
C4806       C  0.76426702  0.91776696  0.71772164    -0.30450
H4807       H  0.78986580  0.93219841  0.75304190     0.13750
H4808       H  0.76386709  0.90532656  0.70016934     0.14330
C4809       C  0.83465212  0.53922019  0.62838114    -0.15270
C4810       C  0.84384530  0.51710776  0.61875691    -0.30450
H4811       H  0.81487474  0.54870741  0.61655248     0.13750
H4812       H  0.86261524  0.00644287  0.63087668     0.14330
C4813       C  0.98813284  0.64024403  0.62136879    -0.15270
C4814       C  0.97689108  0.61588620  0.62894197    -0.30450
H4815       H  0.98572000  0.65479070  0.63596528     0.13750
H4816       H  0.98108898  0.60154859  0.61469099     0.14330
C4817       C  0.00396455  0.53470819  0.71636891    -0.15270
C4818       C  0.52914219  0.53640492  0.73346395    -0.30450
H4819       H  0.00285241  0.52221632  0.69885131     0.13750
H4820       H  0.53009969  0.54889387  0.75098982     0.14330
C4821       C  0.88798745  0.98109016  0.73550204    -0.15270
C4822       C  0.90922713  0.97011746  0.72259089    -0.30450
H4823       H  0.87123958  0.46825415  0.75582447     0.13750
H4824       H  0.92467063  0.98165292  0.70776961     0.14330
C4825       C  0.88814103  0.73063843  0.75565285    -0.15270
C4826       C  0.90228401  0.71653553  0.73846489    -0.30450
H4827       H  0.87433611  0.72104714  0.77381690     0.13750
H4828       H  0.91553603  0.72645575  0.71994955     0.14330
C4829       C  0.78218355  0.66390883  0.74068494    -0.15270
C4830       C  0.75727717  0.66123074  0.72350134    -0.30450
H4831       H  0.78310607  0.67653455  0.75806383     0.13750
H4832       H  0.75619838  0.64828733  0.70647750     0.14330
C4833       C  0.94573787  0.83582537  0.87359718    -0.15270
C4834       C  0.95201944  0.86067276  0.86106803    -0.30450
H4835       H  0.92736752  0.82662789  0.86264827     0.13750
H4836       H  0.97101907  0.86980296  0.87089493     0.14330
C4837       C  0.56722771  0.75419416  0.86509729    -0.15270
C4838       C  0.57133090  0.73010052  0.85771149    -0.30450
H4839       H  0.57393523  0.77157044  0.84949552     0.13750
H4840       H  0.56405123  0.71274758  0.87293799     0.14330
C4841       C  0.93844066  0.55507120  0.86631368    -0.15270
C4842       C  0.92805725  0.57946351  0.86626386    -0.30450
H4843       H  0.94069812  0.54873047  0.84417976     0.13750
H4844       H  0.92389473  0.58598616  0.88792599     0.14330
C4845       C  0.56803588  0.96588495  0.84707992    -0.15270
C4846       C  0.56691804  0.98790339  0.85947643    -0.30450
H4847       H  0.55754219  0.94823529  0.85823821     0.13750
H4848       H  0.57964882  0.50502396  0.84871238     0.14330
C4849       C  0.50872309  0.88524756  0.95463866    -0.15270
C4850       C  0.51488476  0.89836866  0.97801345    -0.30450
H4851       H  0.50684224  0.89525859  0.93037340     0.13750
H4852       H  0.51913456  0.88742458  0.00168900     0.14330
C4853       C  0.50447064  0.63113823  0.00356019    -0.15270
C4854       C  0.51245315  0.64275545  0.02799015    -0.30450
H4855       H  0.99957190  0.64331155  0.97978797     0.13750
H4856       H  0.51823866  0.63166795  0.05119780     0.14330
C4857       C  0.82426692  0.88937689  0.85822681    -0.15270
C4858       C  0.82849206  0.86540665  0.85067465    -0.30450
H4859       H  0.83175954  0.90682268  0.84332975     0.13750
H4860       H  0.82049518  0.84804640  0.86531600     0.14330
C4861       C  0.71133502  0.96945150  0.86245600    -0.15270
C4862       C  0.68328796  0.97747290  0.85594864    -0.30450
H4863       H  0.72788486  0.97722093  0.84628866     0.13750
H4864       H  0.66715330  0.46938906  0.87298456     0.14330
C4865       C  0.64885045  0.82577498  0.99194455    -0.15270
C4866       C  0.62649381  0.82855849  0.96907550    -0.30450
H4867       H  0.64723458  0.81144475  0.01324053     0.13750
H4868       H  0.62810849  0.84281501  0.94771920     0.14330
C4869       C  0.87536596  0.96249917  0.96096335    -0.15270
C4870       C  0.89910494  0.95856691  0.94536846    -0.30450
H4871       H  0.87629176  0.97648386  0.97670183     0.13750
H4872       H  0.89845513  0.94435194  0.92993502     0.14330
C4873       C  0.81528116  0.61717594  0.86982879    -0.15270
C4874       C  0.81611804  0.59540508  0.85674727    -0.30450
H4875       H  0.82859060  0.63356193  0.85989847     0.13750
H4876       H  0.80459029  0.57806470  0.86713507     0.14330
C4877       C  0.68908892  0.68413391  0.87630823    -0.15270
C4878       C  0.68013482  0.70922796  0.87364874    -0.30450
H4879       H  0.69074230  0.67598597  0.85522771     0.13750
H4880       H  0.67748847  0.71797622  0.89418186     0.14330
C4881       C  0.62455175  0.58416129  0.99205875    -0.15270
C4882       C  0.64446294  0.58554566  0.96929199    -0.30450
H4883       H  0.62987532  0.59176774  0.01343688     0.13750
H4884       H  0.63942894  0.57729633  0.94831464     0.14330
C4885       C  0.75834083  0.75323432  0.02877901    -0.15270
C4886       C  0.75615535  0.77231533  0.00349435    -0.30450
H4887       H  0.76338436  0.75761343  0.05209156     0.13750
H4888       H  0.75308450  0.76715915  0.98029169     0.14330
C4889       C  0.76252648  0.52501398  0.97888750    -0.15270
C4890       C  0.76038432  0.51256855  0.95428680    -0.30450
H4891       H  0.76449970  0.51333560  0.00236541     0.13750
H4892       H  0.76109516  0.52338308  0.93049276     0.14330
C4893       C  0.89969039  0.69589317  0.01713472    -0.15270
C4894       C  0.87359496  0.70631374  0.02038276    -0.30450
H4895       H  0.90147011  0.67542755  0.01598547     0.13750
H4896       H  0.87171950  0.72639017  0.02324662     0.14330
C4897       C  0.68651409  0.84458364  0.11724962    -0.15270
C4898       C  0.69123155  0.87028948  0.10494132    -0.30450
H4899       H  0.69296154  0.82939435  0.10498933     0.13750
H4900       H  0.68460294  0.88552919  0.11702179     0.14330
C4901       C  0.57940435  0.75544771  0.13255531    -0.15270
C4902       C  0.55185010  0.74697307  0.12616370    -0.30450
H4903       H  0.59649055  0.75254103  0.11710601     0.13750
H4904       H  0.53447987  0.74899232  0.14162194     0.14330
C4905       C  0.66640566  0.78978799  0.37992143    -0.15270
C4906       C  0.68208161  0.76701099  0.38364399    -0.30450
H4907       H  0.66450307  0.79975676  0.39961815     0.13750
H4908       H  0.68240347  0.75640280  0.36436378     0.14330
C4909       C  0.56234443  0.80042475  0.37169003    -0.15270
C4910       C  0.57255093  0.81999889  0.38653776    -0.30450
H4911       H  0.54252600  0.78971988  0.37833175     0.13750
H4912       H  0.59347843  0.82860976  0.37942410     0.14330
C4913       C  0.72157567  0.59083884  0.13806537    -0.15270
C4914       C  0.73537347  0.61459997  0.13308130    -0.30450
H4915       H  0.72010429  0.57933433  0.11952022     0.13750
H4916       H  0.73843224  0.62587629  0.15174021     0.14330
C4917       C  0.58251773  0.52166808  0.12963243    -0.15270
C4918       C  0.59113428  0.50456843  0.11174153    -0.30450
H4919       H  0.56153997  0.53148151  0.12282926     0.13750
H4920       H  0.61077502  0.49279452  0.11816841     0.14330
C4921       C  0.62663736  0.92600634  0.26232617    -0.15270
C4922       C  0.63473149  0.94514942  0.23913875    -0.30450
H4923       H  0.61886972  0.93071646  0.28383225     0.13750
H4924       H  0.64304387  0.94028764  0.21794945     0.14330
C4925       C  0.63553328  0.67685207  0.26368405    -0.15270
C4926       C  0.63390353  0.69429364  0.23691006    -0.30450
H4927       H  0.63257232  0.68255921  0.28620471     0.13750
H4928       H  0.63735645  0.68875785  0.21440215     0.14330
C4929       C  0.68506988  0.55000265  0.37821705    -0.15270
C4930       C  0.69065200  0.52420804  0.38046621    -0.30450
H4931       H  0.69871140  0.56078493  0.39257556     0.13750
H4932       H  0.67748895  0.51281619  0.36621266     0.14330
C4933       C  0.56723108  0.55639479  0.37262240    -0.15270
C4934       C  0.57511469  0.57650848  0.38786399    -0.30450
H4935       H  0.54936092  0.54338554  0.38016712     0.13750
H4936       H  0.59471369  0.58729648  0.38033458     0.14330
C4937       C  0.83225496  0.88974561  0.12244200    -0.15270
C4938       C  0.80491115  0.88004923  0.11621509    -0.30450
H4939       H  0.84935195  0.88683817  0.10702892     0.13750
H4940       H  0.78733882  0.88189174  0.13147611     0.14330
C4941       C  0.96513435  0.97052121  0.12378600    -0.15270
C4942       C  0.97947534  0.49511045  0.11801126    -0.30450
H4943       H  0.96379569  0.95806939  0.10623805     0.13750
H4944       H  0.98258572  0.50717635  0.13585008     0.14330
C4945       C  0.99426330  0.87205282  0.22708335    -0.15270
C4946       C  0.51526247  0.86952272  0.25072564    -0.30450
H4947       H  0.99599527  0.86236960  0.20710044     0.13750
H4948       H  0.51366791  0.87937864  0.27056366     0.14330
C4949       C  0.75307863  0.50452136  0.22841612    -0.15270
C4950       C  0.77606845  0.00465094  0.24666300    -0.30450
H4951       H  0.75199970  0.99372606  0.20775031     0.13750
H4952       H  0.77683732  0.51460421  0.26804682     0.14330
C4953       C  0.81425529  0.93127118  0.36301334    -0.15270
C4954       C  0.82273530  0.95077965  0.37897991    -0.30450
H4955       H  0.79647203  0.91816985  0.37058847     0.13750
H4956       H  0.84211810  0.96175635  0.37113567     0.14330
C4957       C  0.91815921  0.91723035  0.37344783    -0.15270
C4958       C  0.93301596  0.89426223  0.37670766    -0.30450
H4959       H  0.91636488  0.92690101  0.39341212     0.13750
H4960       H  0.93311395  0.88389104  0.35717723     0.14330
C4961       C  0.82886454  0.63361897  0.14327197    -0.15270
C4962       C  0.84090813  0.62053047  0.12289761    -0.30450
H4963       H  0.80566046  0.63869148  0.13900190     0.13750
H4964       H  0.86377156  0.61446614  0.12590662     0.14330
C4965       C  0.94038494  0.71947297  0.12532765    -0.15270
C4966       C  0.94405941  0.74527682  0.11376077    -0.30450
H4967       H  0.94558327  0.70458853  0.11202021     0.13750
H4968       H  0.93918794  0.76015495  0.12719299     0.14330
C4969       C  0.00204462  0.62723761  0.23591930    -0.15270
C4970       C  0.52552524  0.62720627  0.25747271    -0.30450
H4971       H  0.00272098  0.61754076  0.21582915     0.13750
H4972       H  0.52454180  0.63656356  0.27780827     0.14330
C4973       C  0.87681063  0.80499165  0.25827421    -0.15270
C4974       C  0.88378934  0.82259917  0.23284030    -0.30450
H4975       H  0.86893964  0.81125612  0.27886721     0.13750
H4976       H  0.89236517  0.81636470  0.21255855     0.14330
C4977       C  0.88886233  0.57083590  0.24097582    -0.15270
C4978       C  0.88676306  0.55130357  0.26517884    -0.30450
H4979       H  0.89385448  0.56704987  0.21799825     0.13750
H4980       H  0.88221036  0.55502335  0.28829967     0.14330
C4981       C  0.76909444  0.75047429  0.25380770    -0.15270
C4982       C  0.74688458  0.75179436  0.23113843    -0.30450
H4983       H  0.76750661  0.76096287  0.27309882     0.13750
H4984       H  0.74835915  0.74122505  0.21190467     0.14330
C4985       C  0.81542057  0.67518000  0.37732075    -0.15270
C4986       C  0.82452606  0.69454614  0.39299939    -0.30450
H4987       H  0.79607807  0.66361092  0.38353833     0.13750
H4988       H  0.84505722  0.70401390  0.38633542     0.14330
C4989       C  0.93381675  0.65340549  0.38364654    -0.15270
C4990       C  0.91890846  0.67620810  0.38279417    -0.30450
H4991       H  0.93060783  0.64276505  0.36444679     0.13750
H4992       H  0.91993121  0.68590424  0.40302974     0.14330
loop_ 
_geom_bond_atom_site_label_1 
_geom_bond_atom_site_label_2 
_geom_bond_distance 
_geom_bond_site_symmetry_2 
_ccdc_geom_bond_type 
O1          Zr13   2.582       .  S
O1            C3   1.315       .  A
O2          Zr39   2.334       .  S
O2            C3   1.276       .  A
C3         C1241   1.507       .  S
O4          Zr16   2.434       .  S
O4            C6   1.283       .  A
O5          Zr40   2.445       .  S
O5            C6   1.289       .  A
C6         C1225   1.486       .  S
O7          Zr16   2.381       .  S
O7            C9   1.273       .  A
O8          Zr39   2.524       .  S
O8            C9   1.299       .  A
C9         C1246   1.477       .  S
O10         Zr13   2.450       .  S
O10          C12   1.293       .  A
O11         Zr40   2.397       .  S
O11          C12   1.282       .  A
C12        C1233   1.458       .  S
Zr13         O14   2.435       .  S
Zr13         O15   2.436       .  S
Zr13         O19   2.306       .  S
Zr13         O20   2.435       .  S
Zr13         O43   2.383       .  S
Zr13         O45   2.359       .  S
O14          H57   0.990       .  S
O15          H56   0.990       .  S
O15          H60   0.990       .  S
Zr16         O17   2.440       .  S
Zr16         O18   2.434       .  S
Zr16         O20   2.366       .  S
Zr16         O19   2.364       .  S
Zr16         O44   2.389       .  S
Zr16         O46   2.346       .  S
O17          H58   0.990       .  S
O17          H61   0.990       .  S
O18          H51   0.990       .  S
O19         Zr39   2.338       .  S
O20         Zr40   2.407       .  S
O20          H47   0.966       .  S
O21         Zr33   2.451       .  S
O21          C23   1.290       .  A
O22         Zr40   2.433       .  S
O22          C23   1.286       .  A
C23        C1217   1.480       .  S
O24         Zr36   2.385       .  S
O24          C26   1.277       .  A
O25         Zr39   2.440       .  S
O25          C26   1.290       .  A
C26        C1229   1.469       .  S
O27         Zr36   2.333       .  S
O27          C29   1.267       .  A
O28         Zr40   2.498       .  S
O28          C29   1.302       .  A
C29        C1221   1.466       .  S
O30         Zr33   2.407       .  S
O30          C32   1.282       .  A
O31         Zr39   2.461       .  S
O31          C32   1.293       .  A
C32        C1237   1.477       .  S
Zr33         O34   2.436       .  S
Zr33         O35   2.436       .  S
Zr33         O41   2.359       .  S
Zr33         O42   2.374       .  S
Zr33         O45   2.369       .  S
Zr33         O43   2.341       .  S
O34          H54   0.990       .  S
O34          H59   0.990       .  S
O35          H55   0.990       .  S
Zr36         O37   2.433       .  S
Zr36         O38   2.436       .  S
Zr36         O42   2.345       .  S
Zr36         O41   2.392       .  S
Zr36         O46   2.372       .  S
Zr36         O44   2.358       .  S
O37          H53   0.990       .  S
O38          H52   0.990       .  S
O38          H62   0.990       .  S
Zr39         O42   2.362       .  S
Zr39         O44   2.388       .  S
Zr39         O45   2.392       .  S
Zr40         O41   2.379       .  S
Zr40         O43   2.404       .  S
Zr40         O46   2.372       .  S
O41          H49   0.966       .  S
O44          H48   0.966       .  S
O45          H50   0.966       .  S
O63       Zr1323   2.441   1_545  S
O63          C65   1.289       .  A
O64        Zr101   2.389       .  S
O64        C1313   1.279       .  A
C65        O1312   1.278       .  A
C65        C1234   1.463       .  S
O66         Zr78   2.515       .  S
O66          C68   1.298       .  A
O67        Zr102   2.437       .  S
O67          C68   1.290       .  A
C68        C1193   1.513       .  S
O69         Zr78   2.413       .  S
O69          C71   1.285       .  A
O70        Zr101   2.416       .  S
O70          C71   1.285       .  A
C71        C1206   1.458       .  S
O72         Zr75   2.379       .  S
O72          C74   1.275       .  A
O73        Zr102   2.551       .  S
O73          C74   1.314       .  A
C74        C1197   1.502       .  S
Zr75       O1311   2.439       .  S
Zr75         O77   2.440       .  S
Zr75       O1324   2.433       .  S
Zr75         O81   2.346       .  S
Zr75         O82   2.414       .  S
Zr75        O105   2.377       .  S
Zr75        O107   2.371       .  S
O76       Zr1323   2.433   1_545  S
O76         H119   0.990       .  S
O77         H118   0.990       .  S
O77        H1370   0.990       .  S
Zr78         O79   2.436       .  S
Zr78         O80   2.434       .  S
Zr78         O82   2.369       .  S
Zr78         O81   2.392       .  S
Zr78        O106   2.397       .  S
Zr78        O108   2.338       .  S
O79         H120   0.990       .  S
O79         H123   0.990       .  S
O80         H113   0.990       .  S
O81        Zr101   2.382       .  S
O82        Zr102   2.379       .  S
O82         H109   0.967       .  S
O83         Zr95   2.394       .  S
O83          C85   1.276       .  A
O84        Zr102   2.401       .  S
O84          C85   1.280       .  A
C85        C1201   1.455       .  S
O86         Zr98   2.587       .  S
O86          C88   1.316       .  A
O87        Zr101   2.328       .  S
O87          C88   1.272       .  A
C88        C1209   1.514       .  S
O89         Zr98   2.397       .  S
O89          C91   1.282       .  A
O90        Zr102   2.463       .  S
O90          C91   1.296       .  A
C91        C1230   1.465       .  S
O92         Zr95   2.362       .  S
O92          C94   1.271       .  A
O93        Zr101   2.538       .  S
O93          C94   1.303       .  A
C94        C1213   1.476       .  S
Zr95         O96   2.442       .  S
Zr95         O97   2.435       .  S
Zr95        O103   2.358       .  S
Zr95        O104   2.361       .  S
Zr95        O107   2.366       .  S
Zr95        O105   2.334       .  S
O96         H116   0.990       .  S
O96         H121   0.990       .  S
O97         H117   0.990       .  S
Zr98         O99   2.433       .  S
Zr98        O100   2.435       .  S
Zr98        O104   2.301       .  S
Zr98        O103   2.436       .  S
Zr98        O108   2.404       .  S
Zr98        O106   2.328       .  S
O99         H115   0.990       .  S
O100        H114   0.990       .  S
O100        H124   0.990       .  S
Zr101       O104   2.310       .  S
Zr101       O106   2.395       .  S
Zr101       O107   2.374       .  S
Zr102       O103   2.410       .  S
Zr102       O105   2.376       .  S
Zr102       O108   2.403       .  S
O103        H111   0.965       .  S
O106        H110   0.966       .  S
O107        H112   0.966       .  S
H122       O1325   0.990       .  S
O125       Zr137   2.413       .  S
O125        C127   1.283       .  A
O126       Zr163   2.391       .  S
O126        C127   1.280       .  A
C127       C1181   1.454       .  S
O128       Zr140   2.470       .  S
O128        C130   1.294       .  A
O129       Zr164   2.445       .  S
O129        C130   1.287       .  A
C130       C1173   1.495       .  S
O131       Zr140   2.430       .  S
O131        C133   1.287       .  A
O132       Zr163   2.467       .  S
O132        C133   1.295       .  A
C133       C1226   1.488       .  S
O134       Zr137   2.360       .  S
O134        C136   1.271       .  A
O135       Zr164   2.541       .  S
O135        C136   1.311       .  A
C136       C1169   1.491       .  S
Zr137       O138   2.434       .  S
Zr137       O139   2.440       .  S
Zr137       O143   2.344       .  S
Zr137       O144   2.398       .  S
Zr137       O167   2.364       .  S
Zr137       O169   2.353       .  S
O138        H181   0.990       .  S
O139        H180   0.990       .  S
O139        H184   0.990       .  S
Zr140       O141   2.436       .  S
Zr140       O142   2.433       .  S
Zr140       O144   2.368       .  S
Zr140       O143   2.373       .  S
Zr140       O168   2.388       .  S
Zr140       O170   2.350       .  S
O141        H182   0.990       .  S
O141        H185   0.990       .  S
O142        H175   0.990       .  S
O143       Zr163   2.375       .  S
O144       Zr164   2.385       .  S
O144        H171   0.967       .  S
O145       Zr157   2.412       .  S
O145        C147   1.283       .  A
O146       Zr164   2.392       .  S
O146        C147   1.279       .  A
C147       C1205   1.455       .  S
O148       Zr160   2.589       .  S
O148        C150   1.317       .  A
O149       Zr163   2.326       .  S
O149        C150   1.272       .  A
C150       C1189   1.516       .  S
O151      Zr1408   2.446       .  S
O151        C153   1.291       .  A
O152       Zr164   2.454   1_565  S
O152       C1401   1.294       .  A
C153       O1400   1.294       .  A
C153       C1178   1.480       .  S
O154       Zr157   2.373       .  S
O154        C156   1.265       .  A
O155       Zr163   2.512       .  S
O155        C156   1.294       .  A
C156       C1185   1.472       .  S
Zr157       O158   2.435       .  S
Zr157       O159   2.435       .  S
Zr157       O165   2.353       .  S
Zr157       O166   2.383       .  S
Zr157       O169   2.382       .  S
Zr157       O167   2.333       .  S
O158        H178   0.990   1_545  S
O158        H183   0.990       .  S
O159        H179   0.990       .  S
Zr160      O1399   2.442   1_545  S
Zr160       O162   2.434       .  S
Zr160      O1409   2.434   1_545  S
Zr160       O166   2.325       .  S
Zr160       O165   2.426       .  S
Zr160       O170   2.405       .  S
Zr160       O168   2.345       .  S
O161      Zr1408   2.433       .  S
O161        H177   0.990       .  S
O162        H176   0.990   1_545  S
O162       H1434   0.990   1_545  S
Zr163       O166   2.363       .  S
Zr163       O168   2.384       .  S
Zr163       O169   2.383       .  S
Zr164       O165   2.410       .  S
Zr164       O167   2.369       .  S
Zr164       O170   2.403       .  S
O165        H173   0.965       .  S
O168        H172   0.966       .  S
O169        H174   0.966       .  S
H186       O1410   0.990       .  S
O187       Zr199   2.366       .  S
O187        C189   1.272       .  A
O188       Zr225   2.517       .  S
O188        C189   1.307       .  A
C189       C1153   1.482       .  S
O190       Zr202   2.369       .  S
O190        C192   1.272       .  A
O191       Zr226   2.541       .  S
O191        C192   1.304       .  A
C192       C1161   1.477       .  S
O193       Zr202   2.407       .  S
O193        C195   1.279       .  A
O194       Zr225   2.443       .  S
O194        C195   1.289       .  A
C195       C1238   1.478       .  S
O196       Zr199   2.428       .  S
O196        C198   1.285       .  A
O197       Zr226   2.440       .  S
O197        C198   1.290       .  A
C198       C1177   1.484       .  S
Zr199       O200   2.435       .  S
Zr199       O201   2.435       .  S
Zr199       O205   2.384       .  S
Zr199       O206   2.369       .  S
Zr199       O229   2.344       .  S
Zr199       O231   2.402       .  S
O200        H243   0.990       .  S
O201        H242   0.990       .  S
O201        H246   0.990       .  S
Zr202       O203   2.433       .  S
Zr202       O204   2.436       .  S
Zr202       O206   2.382       .  S
Zr202       O205   2.350       .  S
Zr202       O230   2.353       .  S
Zr202       O232   2.357       .  S
O203        H244   0.990       .  S
O203        H247   0.990       .  S
O204        H237   0.990       .  S
O205       Zr225   2.368       .  S
O206       Zr226   2.377       .  S
O206        H233   0.966       .  S
O207       Zr219   2.381       .  S
O207        C209   1.279       .  A
O208       Zr226   2.432       .  S
O208        C209   1.288       .  A
C209       C1202   1.451       .  S
O210       Zr222   2.420       .  S
O210        C212   1.288       .  A
O211       Zr225   2.412       .  S
O211        C212   1.286       .  A
C212       C1182   1.450       .  S
O213       Zr222   2.587       .  S
O213        C215   1.316       .  A
O214       Zr226   2.329       .  S
O214        C215   1.273       .  A
C215       C1165   1.509       .  S
O216       Zr219   2.482       .  S
O216        C218   1.293       .  A
O217       Zr225   2.415       .  S
O217        C218   1.285       .  A
C218       C1157   1.487       .  S
Zr219       O220   2.439       .  S
Zr219       O221   2.434       .  S
Zr219       O227   2.384       .  S
Zr219       O228   2.327       .  S
Zr219       O231   2.357       .  S
Zr219       O229   2.393       .  S
O220        H240   0.990       .  S
O220        H245   0.990       .  S
O221        H241   0.990       .  S
Zr222       O223   2.436       .  S
Zr222       O224   2.436       .  S
Zr222       O228   2.396       .  S
Zr222       O227   2.341       .  S
Zr222       O232   2.301       .  S
Zr222       O230   2.431       .  S
O223        H239   0.990       .  S
O224        H238   0.990       .  S
O224        H248   0.990       .  S
Zr225       O228   2.406       .  S
Zr225       O230   2.401       .  S
Zr225       O231   2.368       .  S
Zr226       O227   2.402       .  S
Zr226       O229   2.373       .  S
Zr226       O232   2.323       .  S
O227        H235   0.966       .  S
O230        H234   0.966       .  S
O231        H236   0.966       .  S
O249       Zr261   2.337       .  S
O249        C251   1.267       .  A
O250       Zr287   2.555       .  S
O250        C251   1.310       .  A
C251       C1170   1.490       .  S
O252       Zr264   2.418       .  S
O252        C254   1.284   1_554  A
O253       Zr288   2.473       .  S
O253        C254   1.297       .  A
C254       C1145   1.476       .  S
O255       Zr264   2.524       .  S
O255        C257   1.303       .  A
O256       Zr287   2.340       .  S
O256        C257   1.275       .  A
C257       C1218   1.479       .  S
O258       Zr261   2.359   1_556  S
O258        C260   1.270       .  A
O259       Zr288   2.484       .  S
O259        C260   1.298       .  A
C260       C1138   1.480       .  S
Zr261       O262   2.434       .  S
Zr261       O263   2.437       .  S
Zr261       O267   2.355       .  S
Zr261       O268   2.359       .  S
Zr261       O291   2.330   1_554  S
Zr261       O293   2.360       .  S
O262        H305   0.991       .  S
O263        H304   0.990       .  S
O263        H308   0.990       .  S
Zr264       O265   2.435       .  S
Zr264       O266   2.436       .  S
Zr264       O268   2.415       .  S
Zr264       O267   2.330       .  S
Zr264       O292   2.350       .  S
Zr264       O294   2.382   1_554  S
O265        H306   0.990       .  S
O265        H309   0.990       .  S
O266        H299   0.990       .  S
O267       Zr287   2.341       .  S
O268       Zr288   2.398   1_554  S
O268        H295   0.965       .  S
O269       Zr281   2.392       .  S
O269        C271   1.273       .  A
O270       Zr288   2.498       .  S
O270        C271   1.301       .  A
C271       C1133   1.483       .  S
O272       Zr284   2.409       .  S
O272        C274   1.281   1_556  A
O273       Zr287   2.462       .  S
O273        C274   1.293       .  A
C274       C1150   1.461       .  S
O275       Zr284   2.459       .  S
O275        C277   1.292       .  A
O276       Zr288   2.476       .  S
O276        C277   1.294       .  A
C277       C1129   1.500       .  S
O278       Zr281   2.452       .  S
O278        C280   1.292   1_556  A
O279       Zr287   2.416       .  S
O279        C280   1.284       .  A
C280       C1141   1.485       .  S
Zr281       O282   2.436       .  S
Zr281       O283   2.434       .  S
Zr281       O289   2.403       .  S
Zr281       O290   2.332       .  S
Zr281       O293   2.374   1_556  S
Zr281       O291   2.380       .  S
O282        H302   0.990       .  S
O282        H307   0.990       .  S
O283        H303   0.990       .  S
Zr284       O285   2.435       .  S
Zr284       O286   2.436       .  S
Zr284       O290   2.374       .  S
Zr284       O289   2.360       .  S
Zr284       O294   2.350       .  S
Zr284       O292   2.376   1_556  S
O285        H301   0.990       .  S
O286        H300   0.990       .  S
O286        H310   0.990       .  S
Zr287       O290   2.385   1_554  S
Zr287       O292   2.401       .  S
Zr287       O293   2.382       .  S
Zr288       O289   2.417       .  S
Zr288       O291   2.390       .  S
Zr288       O294   2.406       .  S
O289        H297   0.966       .  S
O292        H296   0.966       .  S
O293        H298   0.966       .  S
O311       Zr323   2.399       .  S
O311        C313   1.275       .  A
O312       Zr349   2.569       .  S
O312        C313   1.309       .  A
C313       C1194   1.523       .  S
O314       Zr326   2.464   1_556  S
O314        C316   1.296       .  A
O315       Zr350   2.453       .  S
O315        C316   1.293       .  A
C316       C2394   1.490       .  S
O317       Zr326   2.589       .  S
O317        C319   1.318       .  A
O318       Zr349   2.290       .  S
O318        C319   1.266       .  A
C319       C1154   1.495       .  S
O320       Zr323   2.434   1_556  S
O320        C322   1.284       .  A
O321       Zr350   2.423       .  S
O321        C322   1.284       .  A
C322       C1125   1.463       .  S
Zr323       O324   2.435       .  S
Zr323       O325   2.434       .  S
Zr323       O329   2.374       .  S
Zr323       O330   2.358   1_554  S
Zr323       O353   2.359   1_554  S
Zr323       O355   2.396       .  S
O324        H367   0.990       .  S
O325        H366   0.990       .  S
O325        H370   0.990       .  S
Zr326       O327   2.435       .  S
Zr326       O328   2.436       .  S
Zr326       O330   2.423   1_554  S
Zr326       O329   2.325       .  S
Zr326       O354   2.346       .  S
Zr326       O356   2.391   1_554  S
O327        H368   0.990       .  S
O327        H371   0.990       .  S
O328        H361   0.990       .  S
O329       Zr349   2.355       .  S
O330       Zr350   2.407       .  S
O330        H357   0.966       .  S
O331       Zr343   2.356       .  S
O331        C333   1.269       .  A
O332       Zr350   2.536       .  S
O332        C333   1.309       .  A
C333       C1113   1.492       .  S
O334       Zr346   2.390       .  S
O334        C336   1.279       .  A
O335       Zr349   2.498       .  S
O335        C336   1.302   1_554  A
C336       C1121   1.484       .  S
O337       Zr346   2.476       .  S
O337        C339   1.292       .  A
O338       Zr350   2.392       .  S
O338        C339   1.280       .  A
C339       C1117   1.474       .  S
O340       Zr343   2.417       .  S
O340        C342   1.281   1_556  A
O341       Zr349   2.432       .  S
O341        C342   1.286       .  A
C342       C1142   1.467       .  S
Zr343       O344   2.440       .  S
Zr343       O345   2.435       .  S
Zr343       O351   2.399       .  S
Zr343       O352   2.339       .  S
Zr343       O355   2.360   1_556  S
Zr343       O353   2.381       .  S
O344        H364   0.991       .  S
O344        H369   0.990       .  S
O345        H365   0.990       .  S
Zr346       O347   2.434       .  S
Zr346       O348   2.436       .  S
Zr346       O352   2.387       .  S
Zr346       O351   2.358       .  S
Zr346       O356   2.331       .  S
Zr346       O354   2.379   1_556  S
O347        H363   0.990       .  S
O348        H362   0.990       .  S
O348        H372   0.991       .  S
Zr349       O352   2.370   1_554  S
Zr349       O354   2.401       .  S
Zr349       O355   2.378       .  S
Zr350       O351   2.375       .  S
Zr350       O353   2.375       .  S
Zr350       O356   2.402       .  S
O351        H359   0.966       .  S
O354        H358   0.966       .  S
O355        H360   0.966       .  S
O373       Zr385   2.351   1_565  S
O373        C375   1.270   1_565  A
O374       Zr411   2.574       .  S
O374       C2871   1.316   1_455  A
C375       O2870   1.316       .  A
C375       C1198   1.501   1_545  S
O376       Zr388   2.421   1_556  S
O376        C378   1.285       .  A
O377      Zr1660   2.476   1_455  S
O377        C378   1.298       .  A
C378       C1106   1.476       .  S
O379       Zr388   2.548       .  S
O379       C1629   1.308       .  A
O380       Zr411   2.326       .  S
O380        C381   1.273       .  A
C381       O1627   1.315   1_545  A
C381       C1174   1.506       .  S
O382      Zr1633   2.435   1_556  S
O382        C384   1.287       .  A
O383      Zr4156   2.418       .  S
O383        C384   1.284       .  A
C384       C1126   1.478       .  S
Zr385      O1630   2.428   1_544  S
Zr385       O387   2.436       .  S
Zr385      O1634   2.434   1_545  S
Zr385       O415   2.312   1_554  S
Zr385       O417   2.383       .  S
Zr385      O2887   2.366       .  S
Zr385      O4136   2.353   1_544  S
O386      Zr1633   2.434       .  S
O386        H429   0.991       .  S
O387        H428   0.991       .  S
O387        H432   0.990       .  S
Zr388       O389   2.434       .  S
Zr388       O390   2.436       .  S
Zr388       O392   2.422   1_454  S
Zr388       O418   2.395   1_554  S
Zr388      O1639   2.328       .  S
Zr388      O1664   2.344       .  S
O389        H430   0.990       .  S
O389        H433   0.990       .  S
O390        H423   0.990       .  S
O391       Zr411   2.357   1_565  S
O391      Zr2881   2.362   1_465  S
O391      Zr1636   2.335       .  S
O392      Zr4129   2.351   1_556  S
O392      Zr1660   2.403       .  S
O392       H2915   0.965       .  S
O393       Zr405   2.388       .  S
O393        C395   1.270       .  A
O394      Zr2908   2.498   1_545  S
O394        C395   1.297       .  A
C395       C1097   1.477       .  S
O396       Zr408   2.367       .  S
O396        C398   1.272       .  A
O397       Zr411   2.503       .  S
O397        C398   1.301   1_554  A
C398       C1137   1.476       .  S
O399       Zr408   2.440       .  S
O399        C401   1.287   1_545  A
O400      Zr1660   2.449   1_455  S
O400       C1649   1.288       .  A
C401       O1648   1.288       .  A
C401       C2350   1.481       .  S
O402       Zr405   2.436       .  S
O402       C2900   1.285   1_556  A
O403       Zr411   2.440       .  S
O403        C404   1.288       .  A
C404       O2898   1.282   1_454  A
C404       C1109   1.471       .  S
Zr405       O407   2.433       .  S
Zr405      O2902   2.437       .  S
Zr405       O417   2.372   1_556  S
Zr405       O415   2.376       .  S
Zr405      O2909   2.404       .  S
Zr405      O2910   2.334       .  S
O406      Zr2901   2.438   1_455  S
O406        H426   0.990   1_455  S
O406       H2927   0.990   1_455  S
O407        H427   0.990       .  S
Zr408       O409   2.435       .  S
Zr408       O410   2.436       .  S
Zr408       O414   2.380       .  S
Zr408       O413   2.356       .  S
Zr408       O416   2.380   1_556  S
Zr408      O1666   2.338   1_545  S
O409        H425   0.990       .  S
O410        H434   0.990       .  S
O410       H1672   0.990   1_545  S
Zr411       O414   2.380   1_554  S
Zr411       O416   2.407       .  S
Zr411      O2913   2.385   1_455  S
Zr412      O1625   2.420   1_655  S
Zr412      O4127   2.435       .  S
Zr412      O2890   2.486   1_565  S
Zr412      O1648   2.448   1_655  S
Zr412       O413   2.398   1_665  S
Zr412      O1640   2.405       .  S
Zr412      O2911   2.377   1_565  S
Zr412      O1666   2.399   1_655  S
O413      Zr2901   2.400   1_455  S
O413        H421   0.966       .  S
O414      Zr2901   2.335   1_455  S
O415      Zr2908   2.388   1_545  S
O416      Zr1636   2.357   1_545  S
O416        H420   0.966       .  S
O417      Zr2907   2.390       .  S
O417        H422   0.966       .  S
O418      Zr1656   2.345       .  S
O418      Zr1660   2.403   1_455  S
H419       O2888   0.965       .  S
H424       O1658   0.990       .  S
H431       O2902   0.990       .  S
O435       Zr447   2.412       .  S
O435        C437   1.277       .  A
O436      Zr2969   2.487   1_455  S
O436        C437   1.292       .  A
C437       C1158   1.497       .  S
O438       Zr450   2.465   1_556  S
O438        C440   1.295       .  A
O439       Zr474   2.423       .  S
O439       C2936   1.286       .  A
C440       O2935   1.287       .  A
C440       C3601   1.482       .  S
O441       Zr450   2.537       .  S
O441        C443   1.305       .  A
O442       Zr473   2.309       .  S
O442        C443   1.259       .  A
C443       C1222   1.471       .  S
O444       Zr447   2.386   1_556  S
O444        C446   1.277       .  A
O445       Zr474   2.490       .  S
O445        C446   1.300       .  A
C446       C1122   1.486       .  S
Zr447       O448   2.436       .  S
Zr447       O449   2.435       .  S
Zr447       O453   2.357       .  S
Zr447       O454   2.368   1_554  S
Zr447       O477   2.373   1_554  S
Zr447       O479   2.368       .  S
O448        H491   0.990       .  S
O449        H490   0.990       .  S
O449        H494   0.991       .  S
Zr450       O451   2.435       .  S
Zr450       O452   2.437       .  S
Zr450       O478   2.345       .  S
Zr450       O480   2.378   1_554  S
Zr450      O2950   2.398       .  S
Zr450      O2949   2.350       .  S
O451        H495   0.990       .  S
O451       H2988   0.990       .  S
O452        H485   0.990       .  S
O453      Zr2946   2.355   1_455  S
O453      Zr2969   2.376   1_455  S
O454       Zr474   2.407       .  S
O454      Zr2946   2.393   1_456  S
O454        H481   0.966   1_556  S
O455       Zr467   2.372       .  S
O455        C457   1.274       .  A
O456       Zr474   2.504       .  S
O456        C457   1.304       .  A
C457       C1093   1.481       .  S
O458       Zr470   2.468       .  S
O458        C460   1.295   1_556  A
O459       Zr473   2.407       .  S
O459        C460   1.284       .  A
C460       C1149   1.472       .  S
O461       Zr470   2.502       .  S
O461        C463   1.297       .  A
O462       Zr474   2.478   1_655  S
O462       C2959   1.296       .  A
C463       O2958   1.283       .  A
C463       C1089   1.488       .  S
O464       Zr467   2.431       .  S
O464        C466   1.288   1_556  A
O465       Zr473   2.434       .  S
O465       C2962   1.286       .  A
C466       O2961   1.285       .  A
C466       C1110   1.483       .  S
Zr467       O468   2.436       .  S
Zr467       O469   2.435       .  S
Zr467       O475   2.394       .  S
Zr467       O479   2.354   1_556  S
Zr467       O477   2.378       .  S
Zr467      O2972   2.349   1_455  S
O468        H488   0.990       .  S
O468        H493   0.990       .  S
O469        H489   0.990       .  S
Zr470       O471   2.434       .  S
Zr470       O472   2.437       .  S
Zr470       O476   2.393       .  S
Zr470       O480   2.355       .  S
Zr470       O478   2.358   1_556  S
Zr470      O2971   2.368       .  S
O471        H487   0.990       .  S
O472        H486   0.990       .  S
O472        H496   0.991       .  S
Zr473      O2932   2.497       .  S
Zr473       O476   2.374   1_554  S
Zr473       O478   2.413       .  S
Zr473      O2949   2.373       .  S
Zr473      O2975   2.366       .  S
Zr474       O475   2.394       .  S
Zr474       O477   2.387       .  S
Zr474      O2976   2.398   1_455  S
O475      Zr2966   2.362   1_455  S
O475        H483   0.966       .  S
O476      Zr2963   2.350       .  S
O478        H482   0.965       .  S
O479      Zr2969   2.365   1_455  S
O479        H484   0.966       .  S
O480      Zr2970   2.398       .  S
H492       O2947   0.990       .  S
O497       Zr509   2.565       .  S
O497        C499   1.310       .  A
O498       Zr535   2.359       .  S
O498        C499   1.277       .  A
C499       C1130   1.518       .  S
O500       Zr512   2.468       .  S
O500        C502   1.291       .  A
O501       Zr536   2.395       .  S
O501        C502   1.278       .  A
C502       C1073   1.482       .  S
O503       Zr512   2.398       .  S
O503        C505   1.276       .  A
O504       Zr535   2.501       .  S
O504        C505   1.296       .  A
C505       C1098   1.474       .  S
O506       Zr509   2.395       .  S
O506        C508   1.280       .  A
O507       Zr536   2.421       .  S
O507        C508   1.288       .  A
C508       C2325   1.445   1_545  S
Zr509       O510   2.434       .  S
Zr509       O511   2.436       .  S
Zr509       O515   2.310       .  S
Zr509       O516   2.439       .  S
Zr509       O539   2.393       .  S
Zr509       O541   2.333       .  S
O510        H553   0.990       .  S
O511        H552   0.990       .  S
O511        H556   0.990       .  S
Zr512       O513   2.439       .  S
Zr512       O514   2.436       .  S
Zr512       O516   2.363       .  S
Zr512       O515   2.382       .  S
Zr512       O540   2.393       .  S
Zr512       O542   2.326       .  S
O513        H554   0.990       .  S
O513        H557   0.990       .  S
O514        H547   0.990       .  S
O515       Zr535   2.336       .  S
O516       Zr536   2.402       .  S
O516        H543   0.966       .  S
O517       Zr529   2.510       .  S
O517        C519   1.302       .  A
O518       Zr536   2.436       .  S
O518        C519   1.285       .  A
C519       C1065   1.508       .  S
O520       Zr532   2.467       .  S
O520        C522   1.294       .  A
O521       Zr535   2.407       .  S
O521        C522   1.282       .  A
C522       C1082   1.486       .  S
O523       Zr532   2.372       .  S
O523        C525   1.274       .  A
O524       Zr536   2.495       .  S
O524        C525   1.302       .  A
C525       C1070   1.473       .  S
O526       Zr529   2.413       .  S
O526        C528   1.286       .  A
O527       Zr535   2.410       .  S
O527        C528   1.284       .  A
C528       C1085   1.453       .  S
Zr529       O530   2.436       .  S
Zr529       O531   2.435       .  S
Zr529       O537   2.360       .  S
Zr529       O538   2.391       .  S
Zr529       O541   2.394       .  S
Zr529       O539   2.332       .  S
O530        H550   0.990       .  S
O530        H555   0.990       .  S
O531        H551   0.990       .  S
Zr532       O533   2.435       .  S
Zr532       O534   2.438       .  S
Zr532       O538   2.331       .  S
Zr532       O537   2.417       .  S
Zr532       O542   2.386       .  S
Zr532       O540   2.367       .  S
O533        H549   0.990       .  S
O534        H548   0.990       .  S
O534        H558   0.990       .  S
Zr535       O538   2.382       .  S
Zr535       O540   2.380       .  S
Zr535       O541   2.395       .  S
Zr536       O537   2.391       .  S
Zr536       O539   2.393       .  S
Zr536       O542   2.374       .  S
O537        H545   0.967       .  S
O540        H544   0.966       .  S
O541        H546   0.966       .  S
O559       Zr571   2.584       .  S
O559        C561   1.318       .  A
O560       Zr597   2.311       .  S
O560        C561   1.267       .  A
C561       C1114   1.494       .  S
O562       Zr574   2.409       .  S
O562        C564   1.283       .  A
O563       Zr598   2.403       .  S
O563        C564   1.282       .  A
C564       C3554   1.456       .  S
O565       Zr574   2.406       .  S
O565        C567   1.272       .  A
O566       Zr597   2.492       .  S
O566        C567   1.289       .  A
C567       C1090   1.498       .  S
O568       Zr571   2.493       .  S
O568        C570   1.300       .  A
O569       Zr598   2.400       .  S
O569        C570   1.284       .  A
C570       C1081   1.478       .  S
Zr571       O572   2.434       .  S
Zr571       O573   2.435       .  S
Zr571       O577   2.336       .  S
Zr571       O578   2.413       .  S
Zr571       O601   2.390       .  S
Zr571       O603   2.356       .  S
O572        H615   0.990       .  S
O573        H614   0.990       .  S
O573        H618   0.990       .  S
Zr574       O575   2.437       .  S
Zr574       O576   2.434       .  S
Zr574       O578   2.365       .  S
Zr574       O577   2.368       .  S
Zr574       O602   2.379       .  S
Zr574       O604   2.355       .  S
O575        H616   0.990       .  S
O575        H619   0.990       .  S
O576        H609   0.990       .  S
O577       Zr597   2.365       .  S
O578       Zr598   2.408       .  S
O578        H605   0.965       .  S
O579       Zr591   2.508       .  S
O579        C581   1.302       .  A
O580       Zr598   2.432       .  S
O580        C581   1.285       .  A
C581       C1049   1.504       .  S
O582       Zr594   2.395       .  S
O582        C584   1.276       .  A
O583       Zr597   2.385       .  S
O583        C584   1.282       .  A
C584       C1078   1.438       .  S
O585       Zr594   2.384       .  S
O585        C587   1.267       .  A
O586       Zr598   2.491       .  S
O586        C587   1.295       .  A
C587       C1053   1.481       .  S
O588       Zr591   2.460       .  S
O588        C590   1.293       .  A
O589       Zr597   2.425       .  S
O589        C590   1.286       .  A
C590       C1061   1.482       .  S
Zr591       O592   2.435       .  S
Zr591       O593   2.433       .  S
Zr591       O599   2.365       .  S
Zr591       O600   2.387       .  S
Zr591       O603   2.379       .  S
Zr591       O601   2.349       .  S
O592        H612   0.990       .  S
O592        H617   0.990       .  S
O593        H613   0.990       .  S
Zr594       O595   2.435       .  S
Zr594       O596   2.438       .  S
Zr594       O600   2.365       .  S
Zr594       O599   2.398       .  S
Zr594       O604   2.365       .  S
Zr594       O602   2.367       .  S
O595        H611   0.990       .  S
O596        H610   0.990       .  S
O596        H620   0.990       .  S
Zr597       O600   2.375       .  S
Zr597       O602   2.375       .  S
Zr597       O603   2.391       .  S
Zr598       O599   2.390       .  S
Zr598       O601   2.395       .  S
Zr598       O604   2.376       .  S
O599        H607   0.966       .  S
O602        H606   0.966       .  S
O603        H608   0.965       .  S
O621       Zr633   2.560       .  S
O621        C623   1.311       .  A
O622       Zr659   2.305       .  S
O622        C623   1.267       .  A
C623       C1094   1.485       .  S
O624       Zr636   2.419       .  S
O624        C626   1.283       .  A
O625       Zr660   2.377       .  S
O625        C626   1.276       .  A
C626       C1086   1.453       .  S
O627       Zr636   2.389       .  S
O627        C629   1.273       .  A
O628       Zr659   2.526       .  S
O628        C629   1.300       .  A
C629       C1134   1.480       .  S
O630       Zr633   2.392       .  S
O630        C632   1.278       .  A
O631       Zr660   2.452       .  S
O631        C632   1.296       .  A
C632       C1045   1.463       .  S
Zr633       O634   2.433       .  S
Zr633       O635   2.436       .  S
Zr633       O639   2.304       .  S
Zr633       O640   2.434       .  S
Zr633       O663   2.398       .  S
Zr633       O665   2.327       .  S
O634        H677   0.990       .  S
O635        H676   0.990       .  S
O635        H680   0.990       .  S
Zr636       O637   2.439       .  S
Zr636       O638   2.437       .  S
Zr636       O640   2.365       .  S
Zr636       O639   2.370       .  S
Zr636       O664   2.380       .  S
Zr636       O666   2.327       .  S
O637        H678   0.990       .  S
O637        H681   0.990       .  S
O638        H671   0.990       .  S
O639       Zr659   2.325       .  S
O640       Zr660   2.403       .  S
O640        H667   0.966       .  S
O641       Zr653   2.512       .  S
O641        C643   1.302       .  A
O642       Zr660   2.437       .  S
O642        C643   1.285       .  A
C643       C1038   1.511       .  S
O644       Zr656   2.446       .  S
O644        C646   1.289       .  A
O645       Zr659   2.374       .  S
O645        C646   1.275       .  A
C646       C1041   1.460       .  S
O647       Zr656   2.346       .  S
O647        C649   1.269       .  A
O648       Zr660   2.520       .  S
O648        C649   1.307       .  A
C649       C1033   1.474       .  S
O650       Zr653   2.401       .  S
O650        C652   1.284       .  A
O651       Zr659   2.423       .  S
O651        C652   1.286       .  A
C652       C1057   1.455       .  S
Zr653       O654   2.436       .  S
Zr653       O655   2.434       .  S
Zr653       O661   2.351       .  S
Zr653       O662   2.390       .  S
Zr653       O665   2.395       .  S
Zr653       O663   2.330       .  S
O654        H674   0.990       .  S
O654        H679   0.990       .  S
O655        H675   0.990       .  S
Zr656       O657   2.434       .  S
Zr656       O658   2.438       .  S
Zr656       O662   2.323       .  S
Zr656       O661   2.416       .  S
Zr656       O666   2.377       .  S
Zr656       O664   2.358       .  S
O657        H673   0.990       .  S
O658        H672   0.990       .  S
O658        H682   0.990       .  S
Zr659       O662   2.377       .  S
Zr659       O664   2.366       .  S
Zr659       O665   2.394       .  S
Zr660       O661   2.387       .  S
Zr660       O663   2.389       .  S
Zr660       O666   2.375       .  S
O661        H669   0.967       .  S
O664        H668   0.966       .  S
O665        H670   0.966       .  S
O683       Zr695   2.522       .  S
O683        C685   1.302       .  A
O684      Zr1969   2.369       .  S
O684        C685   1.280       .  A
C685       C1101   1.501       .  S
O686       Zr698   2.459       .  S
O686        C688   1.291       .  A
O687       Zr722   2.412       .  S
O687        C688   1.283       .  A
C688       C1062   1.480       .  S
O689       Zr698   2.418       .  S
O689       C1939   1.275       .  A
O690       Zr721   2.458   1_565  S
O690        C691   1.284       .  A
C691       O1937   1.275       .  A
C691       C2366   1.485       .  S
O692       Zr695   2.451       .  S
O692        C694   1.293       .  A
O693       Zr722   2.387       .  S
O693        C694   1.280       .  A
C694       C1042   1.456       .  S
Zr695       O696   2.434       .  S
Zr695       O697   2.436       .  S
Zr695       O701   2.347       .  S
Zr695       O702   2.405       .  S
Zr695       O725   2.376       .  S
Zr695       O727   2.363       .  S
O696        H739   0.990       .  S
O697        H738   0.990       .  S
O697        H742   0.990       .  S
Zr698       O699   2.436       .  S
Zr698       O700   2.434       .  S
Zr698       O702   2.359       .  S
Zr698       O701   2.379       .  S
Zr698       O728   2.356       .  S
Zr698      O1974   2.390       .  S
O699        H740   0.990       .  S
O699        H743   0.990       .  S
O700       H1981   0.990       .  S
O701      Zr1969   2.383       .  S
O702       Zr722   2.398       .  S
O702        H729   0.965       .  S
O703       Zr715   2.476       .  S
O703        C705   1.295       .  A
O704       Zr722   2.437       .  S
O704        C705   1.287       .  A
C705       C1029   1.490       .  S
O706       Zr718   2.383       .  S
O706        C708   1.274       .  A
O707       Zr721   2.437       .  S
O707        C708   1.290       .  A
C708       C1046   1.456       .  S
O709       Zr718   2.340       .  S
O709       C1959   1.267   1_545  A
O710       Zr722   2.482       .  S
O710        C711   1.298       .  A
C711       O1957   1.268       .  A
C711       C2273   1.468       .  S
O712      Zr1963   2.480   1_545  S
O712        C714   1.297       .  A
O713       Zr721   2.407       .  S
O713        C714   1.283       .  A
C714       C1074   1.481       .  S
Zr715      O1960   2.457       .  S
Zr715       O717   2.434       .  S
Zr715      O1964   2.435       .  S
Zr715       O723   2.377       .  S
Zr715       O727   2.377       .  S
Zr715       O725   2.352       .  S
Zr715      O1972   2.376       .  S
O716      Zr1963   2.435   1_545  S
O716        H736   0.990   1_545  S
O716        H741   0.990       .  S
O717        H737   0.990       .  S
Zr718       O719   2.435       .  S
Zr718       O720   2.440       .  S
Zr718       O724   2.348       .  S
Zr718       O726   2.354       .  S
Zr718      O1971   2.385   1_545  S
Zr718      O1976   2.367   1_545  S
O719        H735   0.990       .  S
O720        H734   0.990       .  S
O720        H744   0.990       .  S
Zr721      O1932   2.362   1_545  S
Zr721       O724   2.374       .  S
Zr721       O726   2.378       .  S
Zr721      O1949   2.381   1_545  S
Zr721      O1975   2.394   1_545  S
Zr722       O723   2.384       .  S
Zr722       O725   2.392       .  S
Zr722       O728   2.365       .  S
O723      Zr1966   2.383       .  S
O723       H1979   0.967       .  S
O724      Zr1963   2.378   1_545  S
O726      Zr1946   2.389   1_545  S
O726        H730   0.966       .  S
O727      Zr1969   2.392       .  S
O727        H732   0.966       .  S
O728      Zr1966   2.367       .  S
H731       O1971   0.967       .  S
H733       O1948   0.990   1_545  S
O745       Zr757   2.375       .  S
O745        C747   1.267       .  A
O746       Zr783   2.507       .  S
O746       C1995   1.294       .  A
C747       O1994   1.295   1_545  A
C747       C1186   1.494       .  S
O748       Zr760   2.400       .  S
O748        C750   1.282       .  A
O749       Zr784   2.415       .  S
O749        C750   1.284       .  A
C750       C1021   1.454       .  S
O751      Zr2008   2.479       .  S
O751        C753   1.296       .  A
O752       Zr783   2.460       .  S
O752        C753   1.289       .  A
C753       C1210   1.505       .  S
O754       Zr757   2.438       .  S
O754        C756   1.285       .  A
O755       Zr784   2.374       .  S
O755        C756   1.276       .  A
C756       C1017   1.459       .  S
Zr757       O758   2.435       .  S
Zr757       O759   2.442       .  S
Zr757       O763   2.406       .  S
Zr757       O764   2.351       .  S
Zr757       O787   2.346       .  S
Zr757       O789   2.385       .  S
O758        H801   0.990       .  S
O759        H800   0.989       .  S
O759        H804   0.990       .  S
Zr760      O1999   2.474   1_545  S
Zr760       O761   2.435       .  S
Zr760      O2010   2.435   1_545  S
Zr760       O764   2.394       .  S
Zr760       O763   2.353       .  S
Zr760      O2036   2.345   1_545  S
Zr760      O2038   2.389       .  S
O761        H802   0.990       .  S
O761        H805   0.990       .  S
O762      Zr2008   2.435       .  S
O762        H795   0.990       .  S
O763      Zr2031   2.387   1_545  S
O764       Zr784   2.379       .  S
O764        H791   0.966       .  S
O765      Zr2025   2.396   1_545  S
O765        C767   1.273       .  A
O766       Zr784   2.445       .  S
O766        C767   1.284       .  A
C767       C1026   1.453       .  S
O768       Zr780   2.416       .  S
O768        C770   1.283       .  A
O769       Zr783   2.426       .  S
O769        C770   1.291       .  A
C770       C1013   1.461       .  S
O771       Zr780   2.590       .  S
O771        C773   1.316       .  A
O772       Zr784   2.321       .  S
O772       C2021   1.268       .  A
C773       O2020   1.268       .  A
C773       C2314   1.511       .  S
O774       Zr777   2.402       .  S
O774        C776   1.280       .  A
O775       Zr783   2.403       .  S
O775        C776   1.281       .  A
C776       C1009   1.459       .  S
Zr777      O2013   2.393       .  S
Zr777       O778   2.435       .  S
Zr777      O2027   2.436       .  S
Zr777       O785   2.372       .  S
Zr777       O786   2.349       .  S
Zr777      O2037   2.334       .  S
Zr777      O2035   2.377       .  S
O778        H798   0.989       .  S
O778        H803   0.989       .  S
O779      Zr2025   2.435   1_545  S
O779        H799   0.990       .  S
Zr780       O781   2.434       .  S
Zr780       O782   2.434       .  S
Zr780       O786   2.413       .  S
Zr780       O785   2.315       .  S
Zr780       O790   2.332       .  S
Zr780       O788   2.416       .  S
O781        H797   0.990       .  S
O782        H796   0.990       .  S
O782        H806   0.990       .  S
Zr783       O786   2.404       .  S
Zr783       O788   2.412       .  S
Zr783      O2011   2.388       .  S
Zr783      O2037   2.401       .  S
Zr784       O787   2.361       .  S
Zr784      O2033   2.391   1_545  S
Zr784      O2038   2.377       .  S
O785      Zr2032   2.388       .  S
O785        H793   0.964       .  S
O787      Zr2025   2.379   1_545  S
O788      Zr2008   2.347       .  S
O788        H792   0.966       .  S
O789      Zr2025   2.337   1_545  S
O789      Zr2031   2.402   1_545  S
O789        H794   0.965       .  S
O790      Zr2008   2.390       .  S
O790      Zr2032   2.378       .  S
O807       Zr819   2.335       .  S
O807        C809   1.267       .  A
O808       Zr845   2.535       .  S
O808        C809   1.308       .  A
C809       C1162   1.483       .  S
O810       Zr822   2.400       .  S
O810        C812   1.282       .  A
O811       Zr846   2.432       .  S
O811        C812   1.288       .  A
C812       C1006   1.461       .  S
O813       Zr822   2.466       .  S
O813        C815   1.293       .  A
O814       Zr845   2.462       .  S
O814        C815   1.290       .  A
C815       C1242   1.498       .  S
O816       Zr819   2.396       .  S
O816        C818   1.277       .  A
O817       Zr846   2.414       .  S
O817        C818   1.285       .  A
C818       C1014   1.457       .  S
Zr819       O820   2.434       .  S
Zr819       O821   2.437       .  S
Zr819       O825   2.388       .  S
Zr819       O826   2.336       .  S
Zr819       O849   2.356       .  S
Zr819       O851   2.370       .  S
O820        H863   0.990       .  S
O821        H862   0.990       .  S
O821        H866   0.991       .  S
Zr822       O823   2.434       .  S
Zr822       O824   2.435       .  S
Zr822       O826   2.384       .  S
Zr822       O825   2.367       .  S
Zr822       O850   2.335       .  S
Zr822       O852   2.385       .  S
O823        H864   0.990       .  S
O823        H867   0.990       .  S
O824        H857   0.990       .  S
O825       Zr845   2.377       .  S
O826       Zr846   2.380       .  S
O826        H853   0.966       .  S
O827       Zr839   2.377       .  S
O827        C829   1.271       .  A
O828       Zr846   2.489       .  S
O828        C829   1.294       .  A
C829       C1034   1.470       .  S
O830       Zr842   2.454       .  S
O830        C832   1.292       .  A
O831       Zr845   2.396       .  S
O831        C832   1.285       .  A
C832       C1018   1.463       .  S
O833       Zr842   2.603       .  S
O833        C835   1.320       .  A
O834       Zr846   2.308       .  S
O834        C835   1.267       .  A
C835       C1050   1.514       .  S
O836       Zr839   2.390       .  S
O836        C838   1.278       .  A
O837       Zr845   2.418       .  S
O837        C838   1.284       .  A
C838       C1001   1.457       .  S
Zr839       O840   2.436       .  S
Zr839       O841   2.434       .  S
Zr839       O847   2.366       .  S
Zr839       O848   2.340       .  S
Zr839       O851   2.332       .  S
Zr839       O849   2.381       .  S
O840        H860   0.989       .  S
O840        H865   0.990       .  S
O841        H861   0.990       .  S
Zr842       O843   2.437       .  S
Zr842       O844   2.434       .  S
Zr842       O848   2.414       .  S
Zr842       O847   2.320       .  S
Zr842       O852   2.335       .  S
Zr842       O850   2.406       .  S
O843        H859   0.990       .  S
O844        H858   0.990       .  S
O844        H868   0.990       .  S
Zr845       O848   2.407       .  S
Zr845       O850   2.419       .  S
Zr845       O851   2.370       .  S
Zr846       O847   2.393       .  S
Zr846       O849   2.356       .  S
Zr846       O852   2.391       .  S
O847        H855   0.964       .  S
O850        H854   0.966       .  S
O851        H856   0.964       .  S
O869       Zr881   2.330       .  S
O869        C871   1.268       .  A
O870      Zr3403   2.542       .  S
O870        C871   1.309       .  A
C871       C1245   1.483       .  S
O872       Zr884   2.390       .  S
O872        C874   1.280       .  A
O873       Zr908   2.434       .  S
O873        C874   1.288       .  A
C874       C1002   1.458       .  S
O875       Zr884   2.470       .  S
O875        C877   1.294       .  A
O876       Zr907   2.468       .  S
O876        C877   1.290       .  A
C877       C1190   1.505       .  S
O878      Zr3377   2.407       .  S
O878        C880   1.279       .  A
O879       Zr908   2.390       .  S
O879        C880   1.280       .  A
C880        C993   1.451       .  S
Zr881      O3374   2.403       .  S
Zr881       O883   2.437       .  S
Zr881      O3378   2.434       .  S
Zr881       O911   2.353       .  S
Zr881       O913   2.375       .  S
Zr881      O3383   2.392       .  S
Zr881      O3384   2.332       .  S
O882      Zr3377   2.435       .  S
O882        H925   0.990       .  S
O883        H924   0.990       .  S
O883        H928   0.991       .  S
Zr884       O885   2.435       .  S
Zr884       O886   2.435       .  S
Zr884       O888   2.387       .  S
Zr884       O887   2.363       .  S
Zr884       O912   2.336       .  S
Zr884       O914   2.392       .  S
O885        H926   0.990       .  S
O885        H929   0.990       .  S
O886        H919   0.990       .  S
O887       Zr907   2.381       .  S
O887      Zr3377   2.395       .  S
O888       Zr908   2.385       .  S
O888      Zr3377   2.335       .  S
O888        H915   0.966       .  S
O889       Zr901   2.380       .  S
O889        C891   1.273       .  A
O890       Zr908   2.482       .  S
O890       C3387   1.293   1_455  A
C891       O3386   1.293       .  A
C891       C1069   1.465       .  S
O892       Zr904   2.439       .  S
O892        C894   1.288       .  A
O893       Zr907   2.419       .  S
O893        C894   1.289       .  A
C894        C997   1.467       .  S
O895       Zr904   2.609       .  S
O895        C897   1.321       .  A
O896       Zr908   2.314       .  S
O896        C897   1.268       .  A
C897       C1037   1.519       .  S
O898       Zr901   2.406       .  S
O898        C900   1.281       .  A
O899      Zr3403   2.395       .  S
O899        C900   1.279       .  A
C900       C1022   1.456       .  S
Zr901       O902   2.434       .  S
Zr901       O903   2.436       .  S
Zr901       O910   2.347       .  S
Zr901       O913   2.321       .  S
Zr901       O911   2.376       .  S
Zr901      O3405   2.373       .  S
O902        H922   0.989       .  S
O902        H927   0.989       .  S
O903        H923   0.990       .  S
Zr904       O905   2.434       .  S
Zr904       O906   2.434       .  S
Zr904       O909   2.319       .  S
Zr904       O914   2.331       .  S
Zr904       O912   2.415       .  S
Zr904      O3406   2.414       .  S
O905        H921   0.990       .  S
O906        H920   0.990       .  S
O906        H930   0.990       .  S
Zr907      O3366   2.534   1_455  S
Zr907      O3395   2.391   1_455  S
Zr907       O912   2.412       .  S
Zr907      O3406   2.410       .  S
Zr907      O3409   2.376   1_455  S
Zr908       O909   2.389       .  S
Zr908       O914   2.385       .  S
Zr908      O3407   2.355   1_455  S
O909      Zr3397   2.371   1_455  S
O909        H917   0.965       .  S
O910      Zr3400   2.417       .  S
O910      Zr3403   2.410       .  S
O911      Zr3404   2.356       .  S
O912        H916   0.966       .  S
O913      Zr3403   2.376       .  S
O913        H918   0.964       .  S
O931      Zr3439   2.337       .  S
O931        C933   1.268       .  A
O932      Zr3465   2.524       .  S
O932        C933   1.305       .  A
C933       C1214   1.481       .  S
O934       Zr946   2.402       .  S
O934        C936   1.283       .  A
O935       Zr970   2.421       .  S
O935        C936   1.286       .  A
C936       C1010   1.455       .  S
O937       Zr946   2.473       .  S
O937        C939   1.294       .  A
O938       Zr969   2.466       .  S
O938        C939   1.290       .  A
C939       C1166   1.503       .  S
O940       Zr943   2.423       .  S
O940        C942   1.281       .  A
O941       Zr970   2.411       .  S
O941        C942   1.284       .  A
C942        C998   1.471       .  S
Zr943      O3427   2.338   1_455  S
Zr943       O944   2.435       .  S
Zr943      O3441   2.437   1_455  S
Zr943       O949   2.393       .  S
Zr943       O950   2.335       .  S
Zr943       O973   2.353   1_455  S
Zr943      O3471   2.382   1_455  S
O944        H987   0.989       .  S
O945      Zr3439   2.437       .  S
O945        H986   0.990       .  S
O945        H990   0.991       .  S
Zr946       O947   2.434       .  S
Zr946       O948   2.436       .  S
Zr946       O950   2.394       .  S
Zr946       O949   2.366       .  S
Zr946       O974   2.340       .  S
Zr946       O976   2.385       .  S
O947        H988   0.990       .  S
O947        H991   0.990       .  S
O948        H981   0.990       .  S
O949       Zr969   2.380       .  S
O950       Zr970   2.381       .  S
O950        H977   0.966       .  S
O951       Zr963   2.392       .  S
O951       C3449   1.269       .  A
O952       Zr970   2.478       .  S
O952        C953   1.288   1_455  A
C953       O3447   1.269       .  A
C953       C3550   1.485       .  S
O954       Zr966   2.427       .  S
O954        C956   1.286       .  A
O955       Zr969   2.405       .  S
O955        C956   1.287       .  A
C956        C994   1.457       .  S
O957       Zr966   2.564       .  S
O957        C959   1.311       .  A
O958       Zr970   2.322       .  S
O958        C959   1.270       .  A
C959       C1030   1.500       .  S
O960       Zr963   2.407       .  S
O960        C962   1.281       .  A
O961      Zr3465   2.412       .  S
O961        C962   1.283       .  A
C962       C1005   1.459       .  S
Zr963       O964   2.443       .  S
Zr963       O965   2.435       .  S
Zr963       O975   2.349       .  S
Zr963      O3467   2.371       .  S
Zr963      O3468   2.335       .  S
Zr963      O3469   2.391       .  S
O964        H984   0.989       .  S
O964        H989   0.990       .  S
O965        H985   0.991       .  S
Zr966       O967   2.436       .  S
Zr966       O968   2.434       .  S
Zr966       O972   2.410       .  S
Zr966       O971   2.330       .  S
Zr966       O976   2.335       .  S
Zr966       O974   2.404       .  S
O967        H983   0.990       .  S
O968        H982   0.990       .  S
O968        H992   0.990       .  S
Zr969      O3428   2.521   1_455  S
Zr969      O3457   2.412   1_455  S
Zr969       O972   2.402       .  S
Zr969       O974   2.414       .  S
Zr969      O3471   2.377   1_455  S
Zr970       O971   2.396       .  S
Zr970       O973   2.360   1_455  S
Zr970       O976   2.390       .  S
O971      Zr3459   2.370   1_455  S
O971        H979   0.965       .  S
O972      Zr3459   2.336   1_455  S
O973      Zr3459   2.392       .  S
O974        H978   0.966       .  S
O975      Zr3439   2.382       .  S
O975      Zr3465   2.376       .  S
O975        H980   0.964       .  S
C993        C994   1.338       .  D
C993        H995   1.087       .  S
C994        H996   1.087       .  S
C997       C2246   1.340   1_545  D
C997        H999   1.087   1_545  S
C998       C2245   1.340       .  D
C998       H1000   1.087       .  S
C1001      C1002   1.349       .  D
C1001      H1003   1.087       .  S
C1002      H1004   1.087       .  S
C1005      C1006   1.347       .  D
C1005      H1007   1.087       .  S
C1006      H1008   1.087       .  S
C1009      C1010   1.346       .  D
C1009      H1011   1.087       .  S
C1010      H1012   1.087       .  S
C1013      C1014   1.334       .  D
C1013      H1015   1.087       .  S
C1014      H1016   1.087       .  S
C1017      C1018   1.347       .  D
C1017      H1019   1.087       .  S
C1018      H1020   1.087       .  S
C1021      C1022   1.343       .  D
C1021      H1023   1.087       .  S
C1022      H1024   1.087       .  S
C1025      C1959   1.468       .  S
C1025      C1026   1.358   1_565  D
C1025      H1027   1.078       .  S
C1026      H1028   1.086       .  S
C1029      C1030   1.368       .  D
C1029      H1031   1.088       .  S
C1030      H1032   1.085       .  S
C1033      C1034   1.367       .  D
C1033      H1035   1.073       .  S
C1034      H1036   1.086       .  S
C1037      C1038   1.382       .  D
C1037      H1039   1.085       .  S
C1038      H1040   1.087       .  S
C1041      C1042   1.334       .  D
C1041      H1043   1.087       .  S
C1042      H1044   1.087       .  S
C1045      C1046   1.327       .  D
C1045      H1047   1.087       .  S
C1046      H1048   1.088       .  S
C1049      C1050   1.379       .  D
C1049      H1051   1.087       .  S
C1050      H1052   1.085       .  S
C1053      C1054   1.361       .  D
C1053      H1055   1.080       .  S
C1054      C3449   1.486       .  S
C1054      H3552   1.086       .  S
H1056      C3550   1.086       .  S
C1057      C1058   1.344       .  D
C1057      H1059   1.087       .  S
C1058      C3060   1.453   1_455  S
C1058      H3556   1.087       .  S
H1060      C3554   1.087       .  S
C1061      C1062   1.344       .  D
C1061      H1063   1.087       .  S
C1062      H1064   1.087       .  S
C1065      C1066   1.379       .  D
C1065      H1067   1.087       .  S
C1066      C2021   1.515       .  S
C1066      H2316   1.085       .  S
H1068      C2314   1.085       .  S
C1069      C1070   1.361       .  D
C1069      H1071   1.086       .  S
C1070      H1072   1.080       .  S
C1073      C3570   1.341       .  D
C1073      H1075   1.087       .  S
C1074      C3569   1.342       .  D
C1074      H1076   1.087       .  S
C1077      C1756   1.442       .  S
C1077      C1078   1.330       .  D
C1077      H2327   1.088       .  S
C1078      H1080   1.088       .  S
H1079      C2325   1.089       .  S
C1081      C1082   1.342       .  D
C1081      H1083   1.087       .  S
C1082      H1084   1.086       .  S
C1085      C1086   1.339       .  D
C1085      H1087   1.087       .  S
C1086      H1088   1.087       .  S
C1089      C1090   1.353       .  D
C1089      H1091   1.087       .  S
C1090      H1092   1.086       .  S
C1093      C1094   1.374       .  D
C1093      H1095   1.086       .  S
C1094      H1096   1.086       .  S
C1097      C1098   1.363       .  D
C1097      H1099   1.082       .  S
C1098      H1100   1.083       .  S
C1101      C1102   1.359       .  D
C1101      H1103   1.085       .  S
C1102      C1649   1.481       .  S
C1102      H2352   1.087       .  S
H1104      C2350   1.087   1_545  S
C1105      C2936   1.479       .  S
C1105      C1106   1.338       .  D
C1105      H1107   1.086       .  S
C1106      H1108   1.089       .  S
C1109      C1110   1.344       .  D
C1109      H3607   1.089   1_554  S
C1110      H1112   1.086       .  S
H1111      C3605   1.089   1_556  S
C1113      C1114   1.383       .  D
C1113      H1115   1.086       .  S
C1114      H1116   1.085       .  S
C1117      C1118   1.346       .  D
C1117      H1119   1.087       .  S
C1118      C1939   1.484       .  S
C1118      H2368   1.086       .  S
H1120      C2366   1.086       .  S
C1121      C1122   1.366       .  D
C1121      H1123   1.086   1_556  S
C1122      H1124   1.086       .  S
C1125      C1126   1.343       .  D
C1125      H1127   1.087       .  S
C1126      H1128   1.087       .  S
C1129      C1130   1.370       .  D
C1129      H1131   1.086       .  S
C1130      H1132   1.085       .  S
C1133      C1134   1.366       .  D
C1133      H1135   1.083       .  S
C1134      H1136   1.085       .  S
C1137      C1138   1.370       .  D
C1137      H1139   1.086   1_556  S
C1138      H1140   1.086       .  S
C1141      C1142   1.342       .  D
C1141      H1143   1.086       .  S
C1142      H1144   1.087   1_554  S
C1145      C1146   1.337       .  D
C1145      H1147   1.089       .  S
C1146      C1564   1.478   1_545  S
C1146      H1148   1.086       .  S
C1149      C1150   1.339       .  D
C1149      H1151   1.088       .  S
C1150      H1152   1.087   1_554  S
C1153      C1154   1.380       .  D
C1153      H1155   1.086       .  S
C1154      H1156   1.086       .  S
C1157      C1158   1.356       .  D
C1157      H1159   1.087       .  S
C1158      H1160   1.086       .  S
C1161      C1162   1.376       .  D
C1161      H1163   1.086       .  S
C1162      H1164   1.085       .  S
C1165      C1166   1.370       .  D
C1165      H1167   1.085       .  S
C1166      H1168   1.089       .  S
C1169      C1170   1.381       .  D
C1169      H1171   1.087       .  S
C1170      H1172   1.086       .  S
C1173      C1174   1.369       .  D
C1173      H1175   1.089       .  S
C1174      H1176   1.085   1_545  S
C1177      C1178   1.353       .  D
C1177      H1179   1.086       .  S
C1178      H1180   1.087       .  S
C1181      C1182   1.341       .  D
C1181      H1183   1.087       .  S
C1182      H1184   1.087       .  S
C1185      C1186   1.365       .  D
C1185      H1187   1.080       .  S
C1186      H1188   1.085       .  S
C1189      C1190   1.374       .  D
C1189      H1191   1.085       .  S
C1190      H1192   1.088       .  S
C1193      C1194   1.372       .  D
C1193      H1195   1.086       .  S
C1194      H1196   1.085       .  S
C1197      C2446   1.385       .  D
C1197      H1199   1.086       .  S
C1198      C2445   1.384       .  D
C1198      H1200   1.086   1_565  S
C1201      C3698   1.349       .  D
C1201      H1203   1.087       .  S
C1202      C3697   1.349   1_455  D
C1202      H1204   1.086       .  S
C1205      C2454   1.341       .  D
C1205      H2455   1.087   1_545  S
C1206      C2453   1.343       .  D
C1206      H2456   1.087       .  S
H1207      C2453   1.087       .  S
H1208      C2454   1.087       .  S
C1209      C1210   1.374       .  D
C1209      H1211   1.085       .  S
C1210      H1212   1.088       .  S
C1213      C1214   1.375       .  D
C1213      H1215   1.086       .  S
C1214      H1216   1.086       .  S
C1217      C1218   1.353       .  D
C1217      H1219   1.089       .  S
C1218      H1220   1.085       .  S
C1221      C1222   1.374       .  D
C1221      H1223   1.086       .  S
C1222      H1224   1.086       .  S
C1225      C3722   1.357       .  D
C1225      H1227   1.086       .  S
C1226      C3721   1.357       .  D
C1226      H1228   1.086       .  S
C1229      C1230   1.357       .  D
C1229      H1231   1.086       .  S
C1230      H1232   1.087       .  S
C1233      C1234   1.337       .  D
C1233      H1235   1.087       .  S
C1234      H1236   1.087       .  S
C1237      C1238   1.356       .  D
C1237      H1239   1.086       .  S
C1238      H1240   1.086       .  S
C1241      C1242   1.368       .  D
C1241      H1243   1.085       .  S
C1242      H1244   1.089       .  S
C1245      C1246   1.375       .  D
C1245      H1247   1.084       .  S
C1246      H1248   1.086       .  S
O1249     Zr1261   2.576       .  S
O1249      C1251   1.315       .  A
O1250     Zr1287   2.335       .  S
O1250      C1251   1.274       .  A
C1251      C2489   1.508       .  S
O1252     Zr1264   2.440       .  S
O1252      C1254   1.284       .  A
O1253     Zr1288   2.441       .  S
O1253      C1254   1.288       .  A
C1254      C2473   1.488       .  S
O1255     Zr1264   2.394       .  S
O1255      C1257   1.268       .  A
O1256     Zr1287   2.533       .  S
O1256      C1257   1.300       .  A
C1257      C2494   1.474       .  S
O1258     Zr1261   2.449       .  S
O1258      C1260   1.293       .  A
O1259     Zr1288   2.402       .  S
O1259      C1260   1.284       .  A
C1260      C2481   1.459       .  S
Zr1261     O1262   2.434       .  S
Zr1261     O1263   2.435       .  S
Zr1261     O1267   2.278       .  S
Zr1261     O1268   2.451       .  S
Zr1261     O1291   2.378       .  S
Zr1261     O1293   2.373       .  S
O1262      H1305   0.990       .  S
O1263      H1304   0.990       .  S
O1263      H1308   0.990       .  S
Zr1264     O1265   2.438       .  S
Zr1264     O1266   2.437       .  S
Zr1264     O1268   2.363       .  S
Zr1264     O1267   2.322       .  S
Zr1264     O1292   2.405       .  S
Zr1264     O1294   2.350       .  S
O1265      H1306   0.990       .  S
O1265      H1309   0.990       .  S
O1266      H1299   0.991       .  S
O1267     Zr1287   2.304       .  S
O1268     Zr1288   2.404       .  S
O1268      H1295   0.966       .  S
O1269     Zr1281   2.458       .  S
O1269      C1271   1.291       .  A
O1270     Zr1288   2.431       .  S
O1270      C1271   1.286       .  A
C1271      C2465   1.481       .  S
O1272     Zr1284   2.393       .  S
O1272      C1274   1.278       .  A
O1273     Zr1287   2.435       .  S
O1273      C1274   1.288       .  A
C1274      C2477   1.469       .  S
O1275     Zr1284   2.336       .  S
O1275      C1277   1.267       .  A
O1276     Zr1288   2.495       .  S
O1276      C1277   1.302       .  A
C1277      C2469   1.464       .  S
O1278     Zr1281   2.407       .  S
O1278      C1280   1.282       .  A
O1279     Zr1287   2.455       .  S
O1279      C1280   1.292       .  A
C1280      C2485   1.474       .  S
Zr1281     O1282   2.436       .  S
Zr1281     O1283   2.436       .  S
Zr1281     O1289   2.360       .  S
Zr1281     O1290   2.384       .  S
Zr1281     O1293   2.375       .  S
Zr1281     O1291   2.342       .  S
O1282      H1302   0.990       .  S
O1282      H1307   0.990       .  S
O1283      H1303   0.990       .  S
Zr1284     O1285   2.434       .  S
Zr1284     O1286   2.436       .  S
Zr1284     O1290   2.352       .  S
Zr1284     O1289   2.392       .  S
Zr1284     O1294   2.380       .  S
Zr1284     O1292   2.355       .  S
O1285      H1301   0.990       .  S
O1286      H1300   0.990       .  S
O1286      H1310   0.990       .  S
Zr1287     O1290   2.364       .  S
Zr1287     O1292   2.401       .  S
Zr1287     O1293   2.407       .  S
Zr1288     O1289   2.381       .  S
Zr1288     O1291   2.406       .  S
Zr1288     O1294   2.379       .  S
O1289      H1297   0.966       .  S
O1292      H1296   0.966       .  S
O1293      H1298   0.966       .  S
O1311      C1313   1.289       .  A
O1312     Zr1349   2.384   1_545  S
C1313      C2482   1.465       .  S
O1314     Zr1326   2.509       .  S
O1314      C1316   1.297       .  A
O1315     Zr1350   2.439       .  S
O1315      C1316   1.290       .  A
C1316      C2441   1.511       .  S
O1317     Zr1326   2.415       .  S
O1317      C1319   1.286       .  A
O1318     Zr1349   2.406       .  S
O1318      C1319   1.283       .  A
C1319      C2454   1.455   1_565  S
O1320     Zr1323   2.377       .  S
O1320      C1322   1.274       .  A
O1321     Zr1350   2.546       .  S
O1321      C1322   1.313       .  A
C1322      C2445   1.499       .  S
Zr1323     O1325   2.439   1_565  S
Zr1323     O1329   2.346       .  S
Zr1323     O1330   2.413       .  S
Zr1323     O1353   2.376       .  S
Zr1323     O1355   2.366       .  S
O1324      H1367   0.990       .  S
O1325      H1366   0.990       .  S
Zr1326     O1327   2.435       .  S
Zr1326     O1328   2.434       .  S
Zr1326     O1330   2.371       .  S
Zr1326     O1329   2.390       .  S
Zr1326     O1354   2.395       .  S
Zr1326     O1356   2.340       .  S
O1327      H1368   0.990       .  S
O1327      H1371   0.990       .  S
O1328      H1361   0.990       .  S
O1329     Zr1349   2.379       .  S
O1330     Zr1350   2.380       .  S
O1330      H1357   0.967       .  S
O1331     Zr1343   2.403       .  S
O1331      C1333   1.278       .  A
O1332     Zr1350   2.403       .  S
O1332      C1333   1.281       .  A
C1333      C2449   1.458       .  S
O1334     Zr1346   2.584       .  S
O1334      C1336   1.315       .  A
O1335     Zr1349   2.337       .  S
O1335      C1336   1.273       .  A
C1336      C2457   1.517       .  S
O1337     Zr1346   2.406       .  S
O1337      C1339   1.284       .  A
O1338     Zr1350   2.457       .  S
O1338      C1339   1.295       .  A
C1339      C2478   1.467       .  S
O1340     Zr1343   2.374       .  S
O1340      C1342   1.272       .  A
O1341     Zr1349   2.500       .  S
O1341      C1342   1.294       .  A
C1342      C2461   1.465       .  S
Zr1343     O1344   2.441       .  S
Zr1343     O1345   2.435       .  S
Zr1343     O1351   2.357       .  S
Zr1343     O1352   2.367       .  S
Zr1343     O1355   2.367       .  S
Zr1343     O1353   2.336       .  S
O1344      H1364   0.990       .  S
O1344      H1369   0.990       .  S
O1345      H1365   0.990       .  S
Zr1346     O1347   2.434       .  S
Zr1346     O1348   2.435       .  S
Zr1346     O1352   2.306       .  S
Zr1346     O1351   2.431       .  S
Zr1346     O1356   2.402       .  S
Zr1346     O1354   2.333       .  S
O1347      H1363   0.990       .  S
O1348      H1362   0.990       .  S
O1348      H1372   0.990       .  S
Zr1349     O1352   2.327       .  S
Zr1349     O1354   2.391       .  S
Zr1349     O1355   2.374       .  S
Zr1350     O1351   2.411       .  S
Zr1350     O1353   2.375       .  S
Zr1350     O1356   2.401       .  S
O1351      H1359   0.965       .  S
O1354      H1358   0.966       .  S
O1355      H1360   0.966       .  S
O1373     Zr1385   2.411       .  S
O1373      C1375   1.283       .  A
O1374     Zr1411   2.388       .  S
O1374      C1375   1.279       .  A
C1375      C2429   1.451       .  S
O1376     Zr1388   2.451       .  S
O1376      C1378   1.290       .  A
O1377     Zr1412   2.441       .  S
O1377      C1378   1.287       .  A
C1378      C2421   1.485       .  S
O1379     Zr1388   2.419       .  S
O1379      C1381   1.285       .  A
O1380     Zr1411   2.468       .  S
O1380      C1381   1.295       .  A
C1381      C2474   1.484       .  S
O1382     Zr1385   2.359       .  S
O1382      C1384   1.271       .  A
O1383     Zr1412   2.534       .  S
O1383      C1384   1.310       .  A
C1384      C2417   1.488       .  S
Zr1385     O1386   2.434       .  S
Zr1385     O1387   2.440       .  S
Zr1385     O1391   2.345       .  S
Zr1385     O1392   2.395       .  S
Zr1385     O1415   2.364       .  S
Zr1385     O1417   2.351       .  S
O1386      H1429   0.990       .  S
O1387      H1428   0.990       .  S
O1387      H1432   0.990       .  S
Zr1388     O1389   2.436       .  S
Zr1388     O1390   2.433       .  S
Zr1388     O1392   2.366       .  S
Zr1388     O1391   2.369       .  S
Zr1388     O1416   2.383       .  S
Zr1388     O1418   2.352       .  S
O1389      H1430   0.990       .  S
O1389      H1433   0.990       .  S
O1390      H1423   0.990       .  S
O1391     Zr1411   2.373       .  S
O1392     Zr1412   2.384       .  S
O1392      H1419   0.967       .  S
O1393     Zr1405   2.413       .  S
O1393      C1395   1.282       .  A
O1394     Zr1412   2.397       .  S
O1394      C1395   1.280       .  A
C1395      C2453   1.457       .  S
O1396     Zr1408   2.592       .  S
O1396      C1398   1.317       .  A
O1397     Zr1411   2.321       .  S
O1397      C1398   1.271       .  A
C1398      C2437   1.517       .  S
O1399      C1401   1.290       .  A
O1400     Zr1412   2.453       .  S
C1401      C2426   1.478       .  S
O1402     Zr1405   2.374       .  S
O1402      C1404   1.264       .  A
O1403     Zr1411   2.507       .  S
O1403      C1404   1.293       .  A
C1404      C2433   1.470       .  S
Zr1405     O1406   2.435       .  S
Zr1405     O1407   2.435       .  S
Zr1405     O1413   2.355       .  S
Zr1405     O1414   2.385       .  S
Zr1405     O1417   2.382       .  S
Zr1405     O1415   2.332       .  S
O1406      H1426   0.990       .  S
O1406      H1431   0.990       .  S
O1407      H1427   0.990       .  S
Zr1408     O1410   2.434       .  S
Zr1408     O1414   2.327       .  S
Zr1408     O1413   2.426       .  S
Zr1408     O1418   2.405       .  S
Zr1408     O1416   2.344       .  S
O1409      H1425   0.990       .  S
O1410      H1424   0.990       .  S
Zr1411     O1414   2.364       .  S
Zr1411     O1416   2.381       .  S
Zr1411     O1417   2.384       .  S
Zr1412     O1413   2.408       .  S
Zr1412     O1415   2.368       .  S
Zr1412     O1418   2.403       .  S
O1413      H1421   0.965       .  S
O1416      H1420   0.966       .  S
O1417      H1422   0.966       .  S
O1435     Zr1447   2.362       .  S
O1435      C1437   1.271       .  A
O1436     Zr1473   2.512       .  S
O1436      C1437   1.306       .  A
C1437      C2401   1.480       .  S
O1438     Zr1450   2.368       .  S
O1438      C1440   1.272       .  A
O1439     Zr1474   2.544       .  S
O1439      C1440   1.305       .  A
C1440      C2409   1.478       .  S
O1441     Zr1450   2.404       .  S
O1441      C1443   1.279       .  A
O1442     Zr1473   2.441       .  S
O1442      C1443   1.288       .  A
C1443      C2486   1.477       .  S
O1444     Zr1447   2.424       .  S
O1444      C1446   1.285       .  A
O1445     Zr1474   2.439       .  S
O1445      C1446   1.289       .  A
C1446      C2425   1.482       .  S
Zr1447     O1448   2.435       .  S
Zr1447     O1449   2.435       .  S
Zr1447     O1453   2.382       .  S
Zr1447     O1454   2.368       .  S
Zr1447     O1477   2.343       .  S
Zr1447     O1479   2.401       .  S
O1448      H1491   0.990       .  S
O1449      H1490   0.990       .  S
O1449      H1494   0.990       .  S
Zr1450     O1451   2.433       .  S
Zr1450     O1452   2.436       .  S
Zr1450     O1454   2.381       .  S
Zr1450     O1453   2.349       .  S
Zr1450     O1478   2.353       .  S
Zr1450     O1480   2.360       .  S
O1451      H1492   0.990       .  S
O1451      H1495   0.990       .  S
O1452      H1485   0.990       .  S
O1453     Zr1473   2.366       .  S
O1454     Zr1474   2.375       .  S
O1454      H1481   0.966       .  S
O1455     Zr1467   2.388       .  S
O1455      C1457   1.280       .  A
O1456     Zr1474   2.432       .  S
O1456      C1457   1.288       .  A
C1457      C2450   1.454       .  S
O1458     Zr1470   2.418       .  S
O1458      C1460   1.287       .  A
O1459     Zr1473   2.409       .  S
O1459      C1460   1.285       .  A
C1460      C2430   1.447       .  S
O1461     Zr1470   2.584       .  S
O1461      C1463   1.315       .  A
O1462     Zr1474   2.325       .  S
O1462      C1463   1.273       .  A
C1463      C2413   1.506       .  S
O1464     Zr1467   2.490       .  S
O1464      C1466   1.295       .  A
O1465     Zr1473   2.404       .  S
O1465      C1466   1.283       .  A
C1466      C2405   1.486       .  S
Zr1467     O1468   2.439       .  S
Zr1467     O1469   2.434       .  S
Zr1467     O1475   2.385       .  S
Zr1467     O1476   2.327       .  S
Zr1467     O1479   2.357       .  S
Zr1467     O1477   2.394       .  S
O1468      H1488   0.990       .  S
O1468      H1493   0.990       .  S
O1469      H1489   0.990       .  S
Zr1470     O1471   2.436       .  S
Zr1470     O1472   2.436       .  S
Zr1470     O1476   2.396       .  S
Zr1470     O1475   2.340       .  S
Zr1470     O1480   2.302       .  S
Zr1470     O1478   2.430       .  S
O1471      H1487   0.990       .  S
O1472      H1486   0.990       .  S
O1472      H1496   0.990       .  S
Zr1473     O1476   2.406       .  S
Zr1473     O1478   2.399       .  S
Zr1473     O1479   2.368       .  S
Zr1474     O1475   2.403       .  S
Zr1474     O1477   2.373       .  S
Zr1474     O1480   2.325       .  S
O1475      H1483   0.966       .  S
O1478      H1482   0.966       .  S
O1479      H1484   0.966       .  S
O1497     Zr1509   2.343       .  S
O1497      C1499   1.268       .  A
O1498     Zr1535   2.544       .  S
O1498      C1499   1.308       .  A
C1499      C2418   1.488       .  S
O1500     Zr1512   2.431       .  S
O1500      C1502   1.287   1_554  A
O1501     Zr1536   2.479       .  S
O1501      C1502   1.298       .  A
C1502      C2393   1.482       .  S
O1503     Zr1512   2.530       .  S
O1503      C1505   1.304       .  A
O1504     Zr1535   2.335       .  S
O1504      C1505   1.274       .  A
C1505      C2466   1.481       .  S
O1506     Zr1509   2.358   1_556  S
O1506      C1508   1.269       .  A
O1507     Zr1536   2.488       .  S
O1507      C1508   1.299       .  A
C1508      C2386   1.482       .  S
Zr1509     O1510   2.435       .  S
Zr1509     O1511   2.436       .  S
Zr1509     O1515   2.351       .  S
Zr1509     O1516   2.360       .  S
Zr1509     O1539   2.332   1_554  S
Zr1509     O1541   2.360       .  S
O1510      H1553   0.991       .  S
O1511      H1552   0.990       .  S
O1511      H1556   0.990       .  S
Zr1512     O1513   2.435       .  S
Zr1512     O1514   2.436       .  S
Zr1512     O1516   2.414       .  S
Zr1512     O1515   2.334       .  S
Zr1512     O1540   2.353       .  S
Zr1512     O1542   2.385   1_554  S
O1513      H1554   0.990       .  S
O1513      H1557   0.990       .  S
O1514      H1547   0.990       .  S
O1515     Zr1535   2.343       .  S
O1516     Zr1536   2.399   1_554  S
O1516      H1543   0.965       .  S
O1517     Zr1529   2.392       .  S
O1517      C1519   1.273       .  A
O1518     Zr1536   2.496       .  S
O1518      C1519   1.300       .  A
C1519      C2381   1.482       .  S
O1520     Zr1532   2.411       .  S
O1520      C1522   1.281   1_556  A
O1521     Zr1535   2.448       .  S
O1521      C1522   1.290       .  A
C1522      C2398   1.456       .  S
O1523     Zr1532   2.451       .  S
O1523      C1525   1.290       .  A
O1524     Zr1536   2.481       .  S
O1524      C1525   1.296       .  A
C1525      C2377   1.499       .  S
O1526     Zr1529   2.448       .  S
O1526      C1528   1.291   1_556  A
O1527     Zr1535   2.423       .  S
O1527      C1528   1.285       .  A
C1528      C2389   1.487       .  S
Zr1529     O1530   2.436       .  S
Zr1529     O1531   2.434       .  S
Zr1529     O1537   2.399       .  S
Zr1529     O1538   2.335       .  S
Zr1529     O1541   2.374   1_556  S
Zr1529     O1539   2.379       .  S
O1530      H1550   0.990       .  S
O1530      H1555   0.990       .  S
O1531      H1551   0.990       .  S
Zr1532     O1533   2.435       .  S
Zr1532     O1534   2.436       .  S
Zr1532     O1538   2.374       .  S
Zr1532     O1537   2.360       .  S
Zr1532     O1542   2.357       .  S
Zr1532     O1540   2.372   1_556  S
O1533      H1549   0.990       .  S
O1534      H1548   0.990       .  S
O1534      H1558   0.990       .  S
Zr1535     O1538   2.385   1_554  S
Zr1535     O1540   2.402       .  S
Zr1535     O1541   2.379       .  S
Zr1536     O1537   2.417       .  S
Zr1536     O1539   2.391       .  S
Zr1536     O1542   2.409       .  S
O1537      H1545   0.966       .  S
O1540      H1544   0.966       .  S
O1541      H1546   0.966       .  S
O1559     Zr1571   2.398       .  S
O1559      C1561   1.274       .  A
O1560     Zr1597   2.564       .  S
O1560      C1561   1.308       .  A
C1561      C2442   1.521       .  S
O1562     Zr1574   2.463   1_556  S
O1562      C1564   1.295       .  A
O1563     Zr1598   2.435       .  S
O1563      C1564   1.288       .  A
O1565     Zr1574   2.580       .  S
O1565      C1567   1.316       .  A
O1566     Zr1597   2.293       .  S
O1566      C1567   1.267       .  A
C1567      C2402   1.490       .  S
O1568     Zr1571   2.435   1_556  S
O1568      C1570   1.285       .  A
O1569     Zr1598   2.420       .  S
O1569      C1570   1.283       .  A
C1570      C2373   1.462       .  S
Zr1571     O1572   2.434       .  S
Zr1571     O1573   2.435       .  S
Zr1571     O1577   2.375       .  S
Zr1571     O1578   2.363   1_554  S
Zr1571     O1601   2.355   1_554  S
Zr1571     O1603   2.396       .  S
O1572      H1615   0.990       .  S
O1573      H1614   0.990       .  S
O1573      H1618   0.990       .  S
Zr1574     O1575   2.434       .  S
Zr1574     O1576   2.436       .  S
Zr1574     O1578   2.422   1_554  S
Zr1574     O1577   2.327       .  S
Zr1574     O1602   2.347       .  S
Zr1574     O1604   2.388   1_554  S
O1575      H1616   0.990       .  S
O1575      H1619   0.990       .  S
O1576      H1609   0.990       .  S
O1577     Zr1597   2.357       .  S
O1578     Zr1598   2.403       .  S
O1578      H1605   0.966       .  S
O1579     Zr1591   2.358       .  S
O1579      C1581   1.271       .  A
O1580     Zr1598   2.507       .  S
O1580      C1581   1.302       .  A
C1581      C2361   1.485       .  S
O1582     Zr1594   2.392       .  S
O1582      C1584   1.280       .  A
O1583     Zr1597   2.490       .  S
O1583      C1584   1.300   1_554  A
C1584      C2369   1.481       .  S
O1585     Zr1594   2.479       .  S
O1585      C1587   1.293       .  A
O1586     Zr1598   2.391       .  S
O1586      C1587   1.280       .  A
C1587      C2365   1.475       .  S
O1588     Zr1591   2.419       .  S
O1588      C1590   1.282   1_556  A
O1589     Zr1597   2.436       .  S
O1589      C1590   1.287       .  A
C1590      C2390   1.471       .  S
Zr1591     O1592   2.438       .  S
Zr1591     O1593   2.435       .  S
Zr1591     O1599   2.397       .  S
Zr1591     O1600   2.339       .  S
Zr1591     O1603   2.358   1_556  S
Zr1591     O1601   2.378       .  S
O1592      H1612   0.991       .  S
O1592      H1617   0.990       .  S
O1593      H1613   0.990       .  S
Zr1594     O1595   2.434       .  S
Zr1594     O1596   2.436       .  S
Zr1594     O1600   2.388       .  S
Zr1594     O1599   2.357       .  S
Zr1594     O1604   2.332       .  S
Zr1594     O1602   2.380   1_556  S
O1595      H1611   0.990       .  S
O1596      H1610   0.990       .  S
O1596      H1620   0.991       .  S
Zr1597     O1600   2.372   1_554  S
Zr1597     O1602   2.402       .  S
Zr1597     O1603   2.377       .  S
Zr1598     O1599   2.375       .  S
Zr1598     O1601   2.373       .  S
Zr1598     O1604   2.397       .  S
O1599      H1607   0.966       .  S
O1602      H1606   0.966       .  S
O1603      H1608   0.966       .  S
O1621     Zr1633   2.352       .  S
O1621      C1623   1.270       .  A
O1622     Zr1659   2.581       .  S
O1622      C4119   1.317   1_455  A
C1623      O4118   1.318       .  A
C1623      C2446   1.504       .  S
O1624     Zr1636   2.475   1_556  S
O1624      C1626   1.298       .  A
O1625      C1626   1.286       .  A
C1626      C2354   1.482       .  S
O1627     Zr1636   2.577       .  S
O1628     Zr1659   2.337       .  S
O1628      C1629   1.276       .  A
C1629      C2422   1.498       .  S
O1630      C1632   1.285       .  A
O1631     Zr2908   2.423       .  S
O1631      C1632   1.285       .  A
C1632      C2374   1.477       .  S
Zr1633     O1635   2.436       .  S
Zr1633     O4135   2.369       .  S
Zr1633     O2888   2.350   1_554  S
Zr1633     O1663   2.314   1_554  S
Zr1633     O1665   2.386       .  S
O1634      H1677   0.991       .  S
O1635      H1676   0.991       .  S
O1635      H1680   0.990       .  S
Zr1636     O1637   2.434       .  S
Zr1636     O1638   2.436       .  S
Zr1636     O1640   2.420   1_454  S
Zr1636     O1666   2.392   1_554  S
O1637      H1678   0.990       .  S
O1637      H1681   0.990       .  S
O1638      H1671   0.990       .  S
O1639     Zr4129   2.368   1_455  S
O1639     Zr1659   2.347       .  S
O1640     Zr2881   2.361   1_566  S
O1640      H4163   0.966       .  S
O1641     Zr1653   2.383       .  S
O1641      C1643   1.269       .  A
O1642     Zr4156   2.516       .  S
O1642      C1643   1.301       .  A
C1643      C2345   1.485       .  S
O1644     Zr1656   2.367       .  S
O1644      C1646   1.272       .  A
O1645     Zr1659   2.507       .  S
O1645      C1646   1.302   1_554  A
C1646      C2385   1.477       .  S
O1647     Zr1656   2.437       .  S
O1647      C1649   1.286       .  A
O1650     Zr1653   2.432       .  S
O1650      C4148   1.284   1_556  A
O1651     Zr1659   2.426       .  S
O1651      C1652   1.287       .  A
C1652      O4146   1.283   1_454  A
C1652      C2357   1.467       .  S
Zr1653     O4150   2.437       .  S
Zr1653     O1655   2.433       .  S
Zr1653     O4157   2.404       .  S
Zr1653     O4158   2.333       .  S
Zr1653     O1665   2.370   1_556  S
Zr1653     O1663   2.378       .  S
O1654     Zr4149   2.438   1_455  S
O1654      H1674   0.990   1_455  S
O1654      H4175   0.990   1_455  S
O1655      H1675   0.990       .  S
Zr1656     O1657   2.435       .  S
Zr1656     O1658   2.435       .  S
Zr1656     O1662   2.380       .  S
Zr1656     O1661   2.352       .  S
Zr1656     O1664   2.380   1_556  S
O1657      H1673   0.990       .  S
O1658      H1682   0.990       .  S
Zr1659     O1662   2.382   1_554  S
Zr1659     O1664   2.401       .  S
Zr1659     O4161   2.391   1_455  S
Zr1660     O2879   2.414       .  S
Zr1660     O4138   2.515       .  S
Zr1660     O1661   2.406   1_655  S
Zr1660     O4159   2.385       .  S
O1661     Zr4149   2.403   1_455  S
O1661      H1669   0.966       .  S
O1662     Zr4149   2.333   1_455  S
O1663     Zr4156   2.386       .  S
O1664      H1668   0.966       .  S
O1665     Zr4155   2.392       .  S
O1665      H1670   0.966       .  S
H1667      O4136   0.965       .  S
H1679      O4150   0.990       .  S
O1683     Zr1695   2.415       .  S
O1683      C1685   1.278       .  A
O1684     Zr4217   2.484   1_455  S
O1684      C1685   1.291       .  A
C1685      C2406   1.496       .  S
O1686     Zr1698   2.469   1_556  S
O1686      C1688   1.296       .  A
O1687     Zr1722   2.477       .  S
O1687      C4184   1.298       .  A
C1688      O4183   1.286       .  A
C1688      C4849   1.478       .  S
O1689     Zr1698   2.539       .  S
O1689      C1691   1.305       .  A
O1690     Zr1721   2.306       .  S
O1690      C1691   1.259       .  A
C1691      C2470   1.472       .  S
O1692     Zr1695   2.394       .  S
O1692      C1694   1.279   1_554  A
O1693     Zr1722   2.476       .  S
O1693      C1694   1.297       .  A
C1694      C2370   1.483       .  S
Zr1695     O1696   2.435       .  S
Zr1695     O1697   2.434       .  S
Zr1695     O1701   2.359       .  S
Zr1695     O1702   2.354       .  S
Zr1695     O1725   2.371   1_554  S
Zr1695     O1727   2.364       .  S
O1696      H1739   0.990       .  S
O1697      H1738   0.990       .  S
O1697      H1742   0.990       .  S
Zr1698     O1699   2.435       .  S
Zr1698     O1700   2.436       .  S
Zr1698     O4198   2.395   1_554  S
Zr1698     O4197   2.352       .  S
Zr1698     O1726   2.347       .  S
Zr1698     O1728   2.380   1_554  S
O1699      H4236   0.990       .  S
O1699      H1743   0.990       .  S
O1700      H1733   0.990       .  S
O1701     Zr4194   2.344   1_455  S
O1701     Zr4217   2.363   1_455  S
O1702     Zr4194   2.401   1_455  S
O1702     Zr1722   2.410   1_554  S
O1702      H1729   0.964       .  S
O1703     Zr1715   2.355       .  S
O1703      C1705   1.271       .  A
O1704     Zr1722   2.541       .  S
O1704      C1705   1.312       .  A
C1705      C2341   1.492       .  S
O1706     Zr1718   2.446       .  S
O1706      C1708   1.290   1_556  A
O1707     Zr1721   2.417       .  S
O1707      C1708   1.285       .  A
C1708      C2397   1.470       .  S
O1709     Zr1718   2.454       .  S
O1709      C1711   1.288       .  A
O1710     Zr1722   2.484   1_655  S
O1710      C4207   1.298       .  A
C1711      O4206   1.297       .  A
C1711      C2337   1.501       .  S
O1712     Zr1715   2.440       .  S
O1712      C1714   1.289   1_556  A
O1713     Zr1721   2.426       .  S
O1713      C4210   1.285       .  A
C1714      O4209   1.282       .  A
C1714      C2358   1.474       .  S
Zr1715     O1716   2.436       .  S
Zr1715     O1717   2.434       .  S
Zr1715     O1723   2.399       .  S
Zr1715     O4220   2.338   1_455  S
Zr1715     O1727   2.351   1_556  S
Zr1715     O1725   2.381       .  S
O1716      H1736   0.990       .  S
O1716      H1741   0.990       .  S
O1717      H1737   0.990       .  S
Zr1718     O1719   2.434       .  S
Zr1718     O1720   2.438       .  S
Zr1718     O1724   2.378       .  S
Zr1718     O4219   2.364       .  S
Zr1718     O1728   2.360       .  S
Zr1718     O1726   2.349   1_556  S
O1719      H1735   0.990       .  S
O1720      H1734   0.990       .  S
O1720      H1744   0.991       .  S
Zr1721     O4180   2.491       .  S
Zr1721     O4197   2.373       .  S
Zr1721     O1724   2.373   1_554  S
Zr1721     O1726   2.407       .  S
Zr1721     O4223   2.366       .  S
Zr1722     O1723   2.400       .  S
Zr1722     O1725   2.396       .  S
Zr1722     O4224   2.408   1_455  S
O1723     Zr4214   2.361   1_455  S
O1723      H1731   0.966   1_455  S
O1724     Zr4211   2.348       .  S
O1726      H1730   0.965       .  S
O1727     Zr4217   2.363   1_455  S
O1727      H1732   0.966       .  S
O1728     Zr4218   2.399       .  S
H1740      O4195   0.990   1_455  S
O1745     Zr1757   2.541       .  S
O1745      C1747   1.306       .  A
O1746     Zr1783   2.390       .  S
O1746      C1747   1.284       .  A
C1747      C2378   1.513       .  S
O1748     Zr1760   2.459       .  S
O1748      C1750   1.289       .  A
O1749     Zr1784   2.399       .  S
O1749      C1750   1.279       .  A
C1750      C2321   1.479       .  S
O1751     Zr1760   2.392       .  S
O1751      C1753   1.274       .  A
O1752     Zr1783   2.523       .  S
O1752      C1753   1.301       .  A
C1753      C2346   1.482       .  S
O1754     Zr1757   2.390       .  S
O1754      C1756   1.278       .  A
O1755     Zr1784   2.408       .  S
O1755      C1756   1.287       .  A
Zr1757     O1758   2.434       .  S
Zr1757     O1759   2.436       .  S
Zr1757     O1763   2.312       .  S
Zr1757     O1764   2.434       .  S
Zr1757     O1787   2.388       .  S
Zr1757     O1789   2.337       .  S
O1758      H1801   0.990       .  S
O1759      H1800   0.990       .  S
O1759      H1804   0.990       .  S
Zr1760     O1761   2.440       .  S
Zr1760     O1762   2.436       .  S
Zr1760     O1764   2.365       .  S
Zr1760     O1763   2.377       .  S
Zr1760     O1788   2.390       .  S
Zr1760     O1790   2.317       .  S
O1761      H1802   0.990       .  S
O1761      H1805   0.990       .  S
O1762      H1795   0.990       .  S
O1763     Zr1783   2.340       .  S
O1764     Zr1784   2.401       .  S
O1764      H1791   0.966       .  S
O1765     Zr1777   2.512       .  S
O1765      C1767   1.303       .  A
O1766     Zr1784   2.428       .  S
O1766      C1767   1.284       .  A
C1767      C2313   1.505       .  S
O1768     Zr1780   2.405       .  S
O1768      C1770   1.279       .  A
O1769     Zr1783   2.461       .  S
O1769      C1770   1.295       .  A
C1770      C2330   1.476       .  S
O1771     Zr1780   2.348       .  S
O1771      C1773   1.269       .  A
O1772     Zr1784   2.491       .  S
O1772      C1773   1.299       .  A
C1773      C2318   1.469       .  S
O1774     Zr1777   2.428       .  S
O1774      C1776   1.289       .  A
O1775     Zr1783   2.411       .  S
O1775      C1776   1.284       .  A
C1776      C2333   1.457       .  S
Zr1777     O1778   2.436       .  S
Zr1777     O1779   2.435       .  S
Zr1777     O1785   2.362       .  S
Zr1777     O1786   2.389       .  S
Zr1777     O1789   2.392       .  S
Zr1777     O1787   2.340       .  S
O1778      H1798   0.990       .  S
O1778      H1803   0.990       .  S
O1779      H1799   0.990       .  S
Zr1780     O1781   2.435       .  S
Zr1780     O1782   2.440       .  S
Zr1780     O1786   2.333       .  S
Zr1780     O1785   2.397       .  S
Zr1780     O1790   2.366       .  S
Zr1780     O1788   2.371       .  S
O1781      H1797   0.990       .  S
O1782      H1796   0.990       .  S
O1782      H1806   0.990       .  S
Zr1783     O1786   2.389       .  S
Zr1783     O1788   2.383       .  S
Zr1783     O1789   2.405       .  S
Zr1784     O1785   2.390       .  S
Zr1784     O1787   2.395       .  S
Zr1784     O1790   2.364       .  S
O1785      H1793   0.967       .  S
O1788      H1792   0.966       .  S
O1789      H1794   0.965       .  S
O1807     Zr1819   2.541       .  S
O1807      C1809   1.309       .  A
O1808     Zr1845   2.331       .  S
O1808      C1809   1.271       .  A
C1809      C2362   1.479       .  S
O1810     Zr1822   2.415       .  S
O1810      C1812   1.284       .  A
O1811     Zr1846   2.393       .  S
O1811      C1812   1.280       .  A
C1812      C4802   1.455       .  S
O1813     Zr1822   2.390       .  S
O1813      C1815   1.265       .  A
O1814     Zr1845   2.527       .  S
O1814      C1815   1.298       .  A
C1815      C2338   1.493       .  S
O1816     Zr1819   2.428       .  S
O1816      C1818   1.285       .  A
O1817     Zr1846   2.462       .  S
O1817      C1818   1.297       .  A
C1818      C2329   1.483       .  S
Zr1819     O1820   2.434       .  S
Zr1819     O1821   2.436       .  S
Zr1819     O1825   2.339       .  S
Zr1819     O1826   2.412       .  S
Zr1819     O1849   2.395       .  S
Zr1819     O1851   2.337       .  S
O1820      H1863   0.990       .  S
O1821      H1862   0.990       .  S
O1821      H1866   0.990       .  S
Zr1822     O1823   2.436       .  S
Zr1822     O1824   2.434       .  S
Zr1822     O1826   2.363       .  S
Zr1822     O1825   2.380       .  S
Zr1822     O1850   2.386       .  S
Zr1822     O1852   2.338       .  S
O1823      H1864   0.990       .  S
O1823      H1867   0.990       .  S
O1824      H1857   0.990       .  S
O1825     Zr1845   2.364       .  S
O1826     Zr1846   2.406       .  S
O1826      H1853   0.966       .  S
O1827     Zr1839   2.519       .  S
O1827      C1829   1.305       .  A
O1828     Zr1846   2.429       .  S
O1828      C1829   1.284       .  A
C1829      C2297   1.508       .  S
O1830     Zr1842   2.410       .  S
O1830      C1832   1.278       .  A
O1831     Zr1845   2.388       .  S
O1831      C1832   1.284       .  A
C1832      C2326   1.448       .  S
O1833     Zr1842   2.380       .  S
O1833      C1835   1.264       .  A
O1834     Zr1846   2.512       .  S
O1834      C1835   1.299       .  A
C1835      C2301   1.488       .  S
O1836     Zr1839   2.456       .  S
O1836      C1838   1.292       .  A
O1837     Zr1845   2.455       .  S
O1837      C1838   1.293       .  A
C1838      C2309   1.491       .  S
Zr1839     O1840   2.436       .  S
Zr1839     O1841   2.433       .  S
Zr1839     O1847   2.357       .  S
Zr1839     O1848   2.390       .  S
Zr1839     O1851   2.387       .  S
Zr1839     O1849   2.352       .  S
O1840      H1860   0.990       .  S
O1840      H1865   0.990       .  S
O1841      H1861   0.990       .  S
Zr1842     O1843   2.435       .  S
Zr1842     O1844   2.438       .  S
Zr1842     O1848   2.357       .  S
Zr1842     O1847   2.404       .  S
Zr1842     O1852   2.369       .  S
Zr1842     O1850   2.361       .  S
O1843      H1859   0.990       .  S
O1844      H1858   0.990       .  S
O1844      H1868   0.990       .  S
Zr1845     O1848   2.385       .  S
Zr1845     O1850   2.376       .  S
Zr1845     O1851   2.392       .  S
Zr1846     O1847   2.403       .  S
Zr1846     O1849   2.395       .  S
Zr1846     O1852   2.383       .  S
O1847      H1855   0.966       .  S
O1850      H1854   0.966       .  S
O1851      H1856   0.965       .  S
O1869     Zr1881   2.585       .  S
O1869      C1871   1.317       .  A
O1870     Zr1907   2.303       .  S
O1870      C1871   1.265       .  A
C1871      C2342   1.492       .  S
O1872     Zr1884   2.429       .  S
O1872      C1874   1.284       .  A
O1873     Zr1908   2.379       .  S
O1873      C1874   1.276       .  A
C1874      C2334   1.457       .  S
O1875     Zr1884   2.391       .  S
O1875      C1877   1.274       .  A
O1876     Zr1907   2.525       .  S
O1876      C1877   1.300       .  A
C1877      C2382   1.479       .  S
O1878     Zr1881   2.397       .  S
O1878      C1880   1.280       .  A
O1879     Zr1908   2.447       .  S
O1879      C1880   1.295       .  A
C1880      C2293   1.463       .  S
Zr1881     O1882   2.433       .  S
Zr1881     O1883   2.436       .  S
Zr1881     O1887   2.300       .  S
Zr1881     O1888   2.442       .  S
Zr1881     O1911   2.402       .  S
Zr1881     O1913   2.321       .  S
O1882      H1925   0.990       .  S
O1883      H1924   0.990       .  S
O1883      H1928   0.990       .  S
Zr1884     O1885   2.439       .  S
Zr1884     O1886   2.437       .  S
Zr1884     O1888   2.365       .  S
Zr1884     O1887   2.373       .  S
Zr1884     O1912   2.383       .  S
Zr1884     O1914   2.327       .  S
O1885      H1926   0.990       .  S
O1885      H1929   0.990       .  S
O1886      H1919   0.990       .  S
O1887     Zr1907   2.323       .  S
O1888     Zr1908   2.406       .  S
O1888      H1915   0.966       .  S
O1889     Zr1901   2.534       .  S
O1889      C1891   1.307       .  A
O1890     Zr1908   2.439       .  S
O1890      C1891   1.285       .  A
C1891      C2286   1.522       .  S
O1892     Zr1904   2.448       .  S
O1892      C1894   1.289       .  A
O1893     Zr1907   2.370       .  S
O1893      C1894   1.274       .  A
C1894      C2289   1.460       .  S
O1895     Zr1904   2.342       .  S
O1895      C1897   1.268       .  A
O1896     Zr1908   2.527       .  S
O1896      C1897   1.309       .  A
C1897      C2281   1.477       .  S
O1898     Zr1901   2.414       .  S
O1898      C1900   1.287       .  A
O1899     Zr1907   2.417       .  S
O1899      C1900   1.285       .  A
C1900      C2305   1.455       .  S
Zr1901     O1902   2.436       .  S
Zr1901     O1903   2.434       .  S
Zr1901     O1909   2.352       .  S
Zr1901     O1910   2.397       .  S
Zr1901     O1913   2.400       .  S
Zr1901     O1911   2.327       .  S
O1902      H1922   0.990       .  S
O1902      H1927   0.990       .  S
O1903      H1923   0.990       .  S
Zr1904     O1905   2.434       .  S
Zr1904     O1906   2.439       .  S
Zr1904     O1910   2.323       .  S
Zr1904     O1909   2.419       .  S
Zr1904     O1914   2.379       .  S
Zr1904     O1912   2.358       .  S
O1905      H1921   0.990       .  S
O1906      H1920   0.990       .  S
O1906      H1930   0.990       .  S
Zr1907     O1910   2.379       .  S
Zr1907     O1912   2.364       .  S
Zr1907     O1913   2.396       .  S
Zr1908     O1909   2.388       .  S
Zr1908     O1911   2.393       .  S
Zr1908     O1914   2.372       .  S
O1909      H1917   0.967       .  S
O1912      H1916   0.966       .  S
O1913      H1918   0.965       .  S
O1931     Zr1943   2.531       .  S
O1931      C1933   1.304       .  A
O1932      C1933   1.278       .  A
C1933      C2349   1.502       .  S
O1934     Zr1946   2.455       .  S
O1934      C1936   1.290       .  A
O1935     Zr1970   2.434       .  S
O1935      C1936   1.288       .  A
C1936      C2310   1.488       .  S
O1937     Zr1946   2.418       .  S
O1938     Zr1969   2.456       .  S
O1938      C1939   1.284       .  A
O1940     Zr1943   2.455       .  S
O1940      C1942   1.294       .  A
O1941     Zr1970   2.382       .  S
O1941      C1942   1.279       .  A
C1942      C2290   1.456       .  S
Zr1943     O1944   2.434       .  S
Zr1943     O1945   2.436       .  S
Zr1943     O1949   2.346       .  S
Zr1943     O1950   2.408       .  S
Zr1943     O1973   2.376       .  S
Zr1943     O1975   2.363       .  S
O1944      H1987   0.990       .  S
O1945      H1986   0.990       .  S
O1945      H1990   0.990       .  S
Zr1946     O1947   2.436       .  S
Zr1946     O1948   2.434       .  S
Zr1946     O1950   2.362       .  S
Zr1946     O1949   2.378       .  S
Zr1946     O1976   2.357       .  S
O1947      H1988   0.990       .  S
O1947      H1991   0.990       .  S
O1950     Zr1970   2.401       .  S
O1950      H1977   0.966       .  S
O1951     Zr1963   2.495       .  S
O1951      C1953   1.300       .  A
O1952     Zr1970   2.454       .  S
O1952      C1953   1.290       .  A
C1953      C2277   1.506       .  S
O1954     Zr1966   2.384       .  S
O1954      C1956   1.275       .  A
O1955     Zr1969   2.435       .  S
O1955      C1956   1.290       .  A
C1956      C2294   1.455       .  S
O1957     Zr1966   2.346       .  S
O1958     Zr1970   2.484       .  S
O1958      C1959   1.298       .  A
O1960      C1962   1.292       .  A
O1961     Zr1969   2.408       .  S
O1961      C1962   1.284       .  A
C1962      C2322   1.471       .  S
Zr1963     O1965   2.434       .  S
Zr1963     O1971   2.382       .  S
Zr1963     O1975   2.377       .  S
Zr1963     O1973   2.354       .  S
O1964      H1984   0.990       .  S
O1964      H1989   0.990       .  S
O1965      H1985   0.990       .  S
Zr1966     O1967   2.435       .  S
Zr1966     O1968   2.439       .  S
Zr1966     O1972   2.349       .  S
Zr1966     O1974   2.353       .  S
O1967      H1983   0.990       .  S
O1968      H1982   0.990       .  S
O1968      H1992   0.990       .  S
Zr1969     O1972   2.375       .  S
Zr1969     O1974   2.381       .  S
Zr1970     O1971   2.390       .  S
Zr1970     O1973   2.397       .  S
Zr1970     O1976   2.366       .  S
O1974      H1978   0.966       .  S
O1975      H1980   0.966       .  S
O1993     Zr2005   2.376       .  S
O1993      C1995   1.267       .  A
O1994     Zr2031   2.511       .  S
C1995      C2434   1.493       .  S
O1996     Zr2008   2.408       .  S
O1996      C1998   1.284       .  A
O1997     Zr2032   2.418       .  S
O1997      C1998   1.285       .  A
C1998      C2269   1.458       .  S
O1999      C2001   1.295       .  A
O2000     Zr2031   2.468       .  S
O2000      C2001   1.290       .  A
C2001      C2458   1.507       .  S
O2002     Zr2005   2.435       .  S
O2002      C2004   1.285       .  A
O2003     Zr2032   2.375       .  S
O2003      C2004   1.277       .  A
C2004      C2265   1.458       .  S
Zr2005     O2006   2.435       .  S
Zr2005     O2007   2.443       .  S
Zr2005     O2011   2.407       .  S
Zr2005     O2012   2.352       .  S
Zr2005     O2035   2.347       .  S
Zr2005     O2037   2.383       .  S
O2006      H2049   0.990       .  S
O2007      H2048   0.989       .  S
O2007      H2052   0.990       .  S
Zr2008     O2009   2.435       .  S
Zr2008     O2012   2.394       .  S
Zr2008     O2011   2.355       .  S
O2009      H2050   0.990       .  S
O2009      H2053   0.990       .  S
O2010      H2043   0.990       .  S
O2012     Zr2032   2.379       .  S
O2012      H2039   0.966       .  S
O2013      C2015   1.274       .  A
O2014     Zr2032   2.450       .  S
O2014      C2015   1.286       .  A
C2015      C2274   1.454       .  S
O2016     Zr2028   2.417       .  S
O2016      C2018   1.284       .  A
O2017     Zr2031   2.430       .  S
O2017      C2018   1.292       .  A
C2018      C2261   1.463       .  S
O2019     Zr2028   2.598       .  S
O2019      C2021   1.318   1_565  A
O2020     Zr2032   2.322       .  S
O2022     Zr2025   2.405       .  S
O2022      C2024   1.280       .  A
O2023     Zr2031   2.410       .  S
O2023      C2024   1.283       .  A
C2024      C2257   1.461       .  S
Zr2025     O2026   2.436       .  S
Zr2025     O2033   2.375       .  S
Zr2025     O2034   2.348       .  S
O2026      H2046   0.989       .  S
O2026      H2051   0.989       .  S
O2027      H2047   0.990       .  S
Zr2028     O2029   2.435       .  S
Zr2028     O2030   2.434       .  S
Zr2028     O2034   2.415       .  S
Zr2028     O2033   2.315       .  S
Zr2028     O2038   2.330   1_565  S
Zr2028     O2036   2.419       .  S
O2029      H2045   0.990       .  S
O2030      H2044   0.990       .  S
O2030      H2054   0.990       .  S
Zr2031     O2034   2.406       .  S
Zr2031     O2036   2.414       .  S
Zr2032     O2035   2.359       .  S
O2033      H2041   0.964       .  S
O2036      H2040   0.966       .  S
O2037      H2042   0.965       .  S
O2055     Zr2067   2.336       .  S
O2055      C2057   1.268       .  A
O2056     Zr2093   2.540       .  S
O2056      C2057   1.309       .  A
C2057      C2410   1.485       .  S
O2058     Zr2070   2.386       .  S
O2058      C2060   1.280       .  A
O2059     Zr2094   2.434       .  S
O2059      C2060   1.288       .  A
C2060      C2254   1.455       .  S
O2061     Zr2070   2.467       .  S
O2061      C2063   1.293       .  A
O2062     Zr2093   2.464       .  S
O2062      C2063   1.290       .  A
C2063      C2490   1.500       .  S
O2064     Zr2067   2.395       .  S
O2064      C2066   1.277       .  A
O2065     Zr2094   2.419       .  S
O2065      C2066   1.286       .  A
C2066      C2262   1.458       .  S
Zr2067     O2068   2.434       .  S
Zr2067     O2069   2.437       .  S
Zr2067     O2073   2.390       .  S
Zr2067     O2074   2.335       .  S
Zr2067     O2097   2.357       .  S
Zr2067     O2099   2.369       .  S
O2068      H2111   0.990       .  S
O2069      H2110   0.990       .  S
O2069      H2114   0.991       .  S
Zr2070     O2071   2.434       .  S
Zr2070     O2072   2.435       .  S
Zr2070     O2074   2.386       .  S
Zr2070     O2073   2.364       .  S
Zr2070     O2098   2.330       .  S
Zr2070     O2100   2.390       .  S
O2071      H2112   0.990       .  S
O2071      H2115   0.990       .  S
O2072      H2105   0.990       .  S
O2073     Zr2093   2.374       .  S
O2074     Zr2094   2.384       .  S
O2074      H2101   0.966       .  S
O2075     Zr2087   2.373       .  S
O2075      C2077   1.271       .  A
O2076     Zr2094   2.497       .  S
O2076      C2077   1.296       .  A
C2077      C2282   1.472       .  S
O2078     Zr2090   2.452       .  S
O2078      C2080   1.292       .  A
O2079     Zr2093   2.396       .  S
O2079      C2080   1.285       .  A
C2080      C2266   1.462       .  S
O2081     Zr2090   2.608       .  S
O2081      C2083   1.321       .  A
O2082     Zr2094   2.316       .  S
O2082      C2083   1.269       .  A
C2083      C2298   1.517       .  S
O2084     Zr2087   2.385       .  S
O2084      C2086   1.278       .  A
O2085     Zr2093   2.407       .  S
O2085      C2086   1.282       .  A
C2086      C2249   1.451       .  S
Zr2087     O2088   2.435       .  S
Zr2087     O2089   2.434       .  S
Zr2087     O2095   2.364       .  S
Zr2087     O2096   2.338       .  S
Zr2087     O2099   2.330       .  S
Zr2087     O2097   2.379       .  S
O2088      H2108   0.989       .  S
O2088      H2113   0.990       .  S
O2089      H2109   0.990       .  S
Zr2090     O2091   2.436       .  S
Zr2090     O2092   2.434       .  S
Zr2090     O2096   2.413       .  S
Zr2090     O2095   2.316       .  S
Zr2090     O2100   2.334       .  S
Zr2090     O2098   2.408       .  S
O2091      H2107   0.990       .  S
O2092      H2106   0.990       .  S
O2092      H2116   0.990       .  S
Zr2093     O2096   2.408       .  S
Zr2093     O2098   2.418       .  S
Zr2093     O2099   2.371       .  S
Zr2094     O2095   2.392       .  S
Zr2094     O2097   2.358       .  S
Zr2094     O2100   2.394       .  S
O2095      H2103   0.964       .  S
O2098      H2102   0.966       .  S
O2099      H2104   0.964       .  S
O2117     Zr2129   2.352       .  S
O2117      C2119   1.271       .  A
O2118     Zr4651   2.522       .  S
O2118      C2119   1.307       .  A
C2119      C2493   1.476       .  S
O2120     Zr2132   2.379       .  S
O2120      C2122   1.279       .  A
O2121     Zr2156   2.427       .  S
O2121      C2122   1.286       .  A
C2122      C2250   1.452       .  S
O2123     Zr2132   2.465       .  S
O2123      C2125   1.292       .  A
O2124     Zr2155   2.470       .  S
O2124      C2125   1.290       .  A
C2125      C2438   1.504       .  S
O2126     Zr4625   2.457       .  S
O2126      C2128   1.290       .  A
O2127     Zr2156   2.344       .  S
O2127      C2128   1.267       .  A
C2128      C2241   1.443       .  S
Zr2129     O4622   2.467       .  S
Zr2129     O4626   2.435       .  S
Zr2129     O2131   2.439       .  S
Zr2129     O4631   2.412       .  S
Zr2129     O4632   2.325       .  S
Zr2129     O2159   2.343       .  S
Zr2129     O2161   2.391       .  S
O2130     Zr4625   2.434       .  S
O2130      H2173   0.990       .  S
O2131      H2172   0.990       .  S
O2131      H2176   0.990       .  S
Zr2132     O2133   2.435       .  S
Zr2132     O2134   2.434       .  S
Zr2132     O2136   2.384       .  S
Zr2132     O2135   2.359       .  S
Zr2132     O2160   2.332       .  S
Zr2132     O2162   2.397       .  S
O2133      H2174   0.990       .  S
O2133      H2177   0.990       .  S
O2134      H2167   0.990       .  S
O2135     Zr4625   2.412       .  S
O2135     Zr2155   2.383       .  S
O2136     Zr4625   2.328       .  S
O2136     Zr2156   2.375       .  S
O2136      H2163   0.966       .  S
O2137     Zr2149   2.387       .  S
O2137      C2139   1.273       .  A
O2138     Zr2156   2.468       .  S
O2138      C4635   1.290   1_455  A
C2139      O4634   1.287       .  A
C2139      C2317   1.453       .  S
O2140     Zr2152   2.429       .  S
O2140      C2142   1.287       .  A
O2141     Zr2155   2.443       .  S
O2141      C2142   1.293       .  A
C2142      C2245   1.468       .  S
O2143     Zr2152   2.642       .  S
O2143      C2145   1.327       .  A
O2144     Zr2156   2.288       .  S
O2144      C2145   1.260       .  A
C2145      C2285   1.527       .  S
O2146     Zr2149   2.414       .  S
O2146      C2148   1.282       .  A
O2147     Zr4651   2.397       .  S
O2147      C2148   1.279       .  A
C2148      C2270   1.460       .  S
Zr2149     O2150   2.435       .  S
Zr2149     O2151   2.436       .  S
Zr2149     O4653   2.382       .  S
Zr2149     O2158   2.353       .  S
Zr2149     O2161   2.319       .  S
Zr2149     O2159   2.376       .  S
O2150      H2170   0.990       .  S
O2150      H2175   0.989       .  S
O2151      H2171   0.990       .  S
Zr2152     O2153   2.434       .  S
Zr2152     O2154   2.434       .  S
Zr2152     O4654   2.427       .  S
Zr2152     O2157   2.300       .  S
Zr2152     O2162   2.322       .  S
Zr2152     O2160   2.422       .  S
O2153      H2169   0.990       .  S
O2154      H2168   0.990       .  S
O2154      H2178   0.990       .  S
Zr2155     O4614   2.557   1_455  S
Zr2155     O4643   2.392   1_455  S
Zr2155     O4654   2.414       .  S
Zr2155     O2160   2.415       .  S
Zr2155     O4657   2.383   1_455  S
Zr2156     O2157   2.386       .  S
Zr2156     O4655   2.359   1_455  S
Zr2156     O2162   2.374       .  S
O2157     Zr4645   2.380   1_455  S
O2157      H2165   0.964       .  S
O2158     Zr4648   2.424       .  S
O2158     Zr4651   2.408       .  S
O2159     Zr4652   2.359       .  S
O2160      H2164   0.966       .  S
O2161     Zr4651   2.385       .  S
O2161      H2166   0.964       .  S
O2179     Zr4687   2.346       .  S
O2179      C2181   1.270       .  A
O2180     Zr4713   2.496       .  S
O2180      C2181   1.299       .  A
C2181      C2462   1.473       .  S
O2182     Zr2194   2.401       .  S
O2182      C2184   1.283       .  A
O2183     Zr2218   2.433       .  S
O2183      C2184   1.288       .  A
C2184      C2258   1.460       .  S
O2185     Zr2194   2.471       .  S
O2185      C2187   1.294       .  A
O2186     Zr2217   2.465       .  S
O2186      C2187   1.290       .  A
C2187      C2414   1.501       .  S
O2188     Zr2191   2.414       .  S
O2188      C2190   1.280       .  A
O2189     Zr2218   2.408       .  S
O2189      C2190   1.283       .  A
C2190      C2246   1.463       .  S
Zr2191     O4675   2.345   1_455  S
Zr2191     O2192   2.436       .  S
Zr2191     O4689   2.437   1_455  S
Zr2191     O2197   2.393       .  S
Zr2191     O2198   2.333       .  S
Zr2191     O2221   2.360   1_455  S
Zr2191     O4719   2.374   1_455  S
O2192      H2235   0.990       .  S
O2193     Zr4687   2.437       .  S
O2193      H2234   0.990       .  S
O2193      H2238   0.991       .  S
Zr2194     O2195   2.434       .  S
Zr2194     O2196   2.436       .  S
Zr2194     O2198   2.394       .  S
Zr2194     O2197   2.368       .  S
Zr2194     O2222   2.344       .  S
Zr2194     O2224   2.386       .  S
O2195      H2236   0.990       .  S
O2195      H2239   0.990       .  S
O2196      H2229   0.990       .  S
O2197     Zr2217   2.374       .  S
O2198     Zr2218   2.385       .  S
O2198      H2225   0.966       .  S
O2199     Zr2211   2.385       .  S
O2199      C4697   1.269       .  A
O2200     Zr2218   2.509       .  S
O2200      C2201   1.297   1_455  A
C2201      O4695   1.269       .  A
C2201      C4798   1.494       .  S
O2202     Zr2214   2.472       .  S
O2202      C2204   1.297       .  A
O2203     Zr2217   2.369       .  S
O2203      C2204   1.276       .  A
C2204      C2242   1.444       .  S
O2205     Zr2214   2.608       .  S
O2205      C2207   1.321       .  A
O2206     Zr2218   2.302       .  S
O2206      C2207   1.267       .  A
C2207      C2278   1.514       .  S
O2208     Zr2211   2.382       .  S
O2208      C2210   1.277       .  A
O2209     Zr4713   2.419       .  S
O2209      C2210   1.283       .  A
C2210      C2253   1.456       .  S
Zr2211     O2212   2.440       .  S
Zr2211     O2213   2.434       .  S
Zr2211     O4715   2.362       .  S
Zr2211     O4716   2.338       .  S
Zr2211     O2223   2.348       .  S
Zr2211     O4717   2.386       .  S
O2212      H2232   0.989       .  S
O2212      H2237   0.990       .  S
O2213      H2233   0.991       .  S
Zr2214     O2215   2.435       .  S
Zr2214     O2216   2.434       .  S
Zr2214     O2220   2.403       .  S
Zr2214     O2219   2.324       .  S
Zr2214     O2224   2.335       .  S
Zr2214     O2222   2.403       .  S
O2215      H2231   0.990       .  S
O2216      H2230   0.990       .  S
O2216      H2240   0.990       .  S
Zr2217     O4676   2.503   1_455  S
Zr2217     O4705   2.409   1_455  S
Zr2217     O2220   2.397       .  S
Zr2217     O2222   2.418       .  S
Zr2217     O4719   2.375   1_455  S
Zr2218     O2219   2.390       .  S
Zr2218     O2221   2.356   1_455  S
Zr2218     O2224   2.395       .  S
O2219     Zr4707   2.368   1_455  S
O2219      H2227   0.964       .  S
O2220     Zr4707   2.329   1_455  S
O2221     Zr4707   2.385       .  S
O2222      H2226   0.966       .  S
O2223     Zr4687   2.374       .  S
O2223     Zr4713   2.370       .  S
O2223      H2228   0.965       .  S
C2241      C2242   1.322       .  D
C2241      H2243   1.088       .  S
C2242      H2244   1.088   1_455  S
C2245      H2247   1.087       .  S
C2246      H2248   1.087   1_565  S
C2249      C2250   1.346       .  D
C2249      H2251   1.087       .  S
C2250      H2252   1.087       .  S
C2253      C2254   1.349       .  D
C2253      H2255   1.087       .  S
C2254      H2256   1.087       .  S
C2257      C2258   1.348       .  D
C2257      H2259   1.087       .  S
C2258      H2260   1.087       .  S
C2261      C2262   1.334       .  D
C2261      H2263   1.087       .  S
C2262      H2264   1.088       .  S
C2265      C2266   1.346       .  D
C2265      H2267   1.087       .  S
C2266      H2268   1.087       .  S
C2269      C2270   1.343       .  D
C2269      H2271   1.087       .  S
C2270      H2272   1.087       .  S
C2273      C2274   1.358       .  D
C2273      H2275   1.079       .  S
C2274      H2276   1.086       .  S
C2277      C2278   1.379       .  D
C2277      H2279   1.088       .  S
C2278      H2280   1.085       .  S
C2281      C2282   1.369       .  D
C2281      H2283   1.073       .  S
C2282      H2284   1.086       .  S
C2285      C2286   1.391       .  D
C2285      H2287   1.085       .  S
C2286      H2288   1.087       .  S
C2289      C2290   1.333       .  D
C2289      H2291   1.088       .  S
C2290      H2292   1.087       .  S
C2293      C2294   1.329       .  D
C2293      H2295   1.087       .  S
C2294      H2296   1.088       .  S
C2297      C2298   1.381       .  D
C2297      H2299   1.087       .  S
C2298      H2300   1.085       .  S
C2301      C2302   1.367       .  D
C2301      H2303   1.081       .  S
C2302      C4697   1.492       .  S
C2302      H4800   1.086       .  S
H2304      C4798   1.086   1_455  S
C2305      C2306   1.341       .  D
C2305      H2307   1.087       .  S
C2306      C4308   1.453   1_455  S
C2306      H4804   1.087       .  S
H2308      C4802   1.087       .  S
C2309      C2310   1.352       .  D
C2309      H2311   1.087       .  S
C2310      H2312   1.087       .  S
C2313      C2314   1.378       .  D
C2313      H2315   1.087       .  S
C2317      C2318   1.360       .  D
C2317      H2319   1.085       .  S
C2318      H2320   1.080       .  S
C2321      C4818   1.343       .  D
C2321      H2323   1.087       .  S
C2322      C4817   1.342       .  D
C2322      H2324   1.087       .  S
C2325      C2326   1.332       .  D
C2326      H2328   1.087       .  S
C2329      C2330   1.336       .  D
C2329      H2331   1.087       .  S
C2330      H2332   1.088       .  S
C2333      C2334   1.339       .  D
C2333      H2335   1.087       .  S
C2334      H2336   1.087       .  S
C2337      C2338   1.353       .  D
C2337      H2339   1.087       .  S
C2338      H2340   1.086       .  S
C2341      C2342   1.383       .  D
C2341      H2343   1.086       .  S
C2342      H2344   1.086       .  S
C2345      C2346   1.368       .  D
C2345      H2347   1.081       .  S
C2346      H2348   1.083       .  S
C2349      C2350   1.361       .  D
C2349      H2351   1.085       .  S
C2353      C4184   1.476       .  S
C2353      C2354   1.338       .  D
C2353      H2355   1.089   1_556  S
C2354      H2356   1.086       .  S
C2357      C2358   1.340       .  D
C2357      H4855   1.089   1_454  S
C2358      H2360   1.086       .  S
H2359      C4853   1.089   1_556  S
C2361      C2362   1.372       .  D
C2361      H2363   1.086       .  S
C2362      H2364   1.086       .  S
C2365      C2366   1.346       .  D
C2365      H2367   1.087       .  S
C2369      C2370   1.363       .  D
C2369      H2371   1.086   1_556  S
C2370      H2372   1.086       .  S
C2373      C2374   1.344       .  D
C2373      H2375   1.087       .  S
C2374      H2376   1.087       .  S
C2377      C2378   1.363       .  D
C2377      H2379   1.086       .  S
C2378      H2380   1.086       .  S
C2381      C2382   1.365       .  D
C2381      H2383   1.083       .  S
C2382      H2384   1.085       .  S
C2385      C2386   1.372       .  D
C2385      H2387   1.086   1_556  S
C2386      H2388   1.086       .  S
C2389      C2390   1.344       .  D
C2389      H2391   1.086       .  S
C2390      H2392   1.088   1_554  S
C2393      C2394   1.344       .  D
C2393      H2395   1.088   1_556  S
C2394      H2396   1.086       .  S
C2397      C2398   1.341       .  D
C2397      H2399   1.087       .  S
C2398      H2400   1.087   1_554  S
C2401      C2402   1.378       .  D
C2401      H2403   1.086       .  S
C2402      H2404   1.086       .  S
C2405      C2406   1.353       .  D
C2405      H2407   1.087       .  S
C2406      H2408   1.086       .  S
C2409      C2410   1.377       .  D
C2409      H2411   1.086       .  S
C2410      H2412   1.085       .  S
C2413      C2414   1.369       .  D
C2413      H2415   1.085       .  S
C2414      H2416   1.089       .  S
C2417      C2418   1.379       .  D
C2417      H2419   1.087       .  S
C2418      H2420   1.086       .  S
C2421      C2422   1.361       .  D
C2421      H2423   1.089       .  S
C2422      H2424   1.085       .  S
C2425      C2426   1.353       .  D
C2425      H2427   1.086       .  S
C2426      H2428   1.087       .  S
C2429      C2430   1.340       .  D
C2429      H2431   1.087       .  S
C2430      H2432   1.087       .  S
C2433      C2434   1.364       .  D
C2433      H2435   1.079       .  S
C2434      H2436   1.085       .  S
C2437      C2438   1.374       .  D
C2437      H2439   1.085       .  S
C2438      H2440   1.088       .  S
C2441      C2442   1.371       .  D
C2441      H2443   1.086       .  S
C2442      H2444   1.085       .  S
C2445      H2447   1.087       .  S
C2446      H2448   1.086       .  S
C2449      C4946   1.348       .  D
C2449      H2451   1.087       .  S
C2450      C4945   1.348   1_455  D
C2450      H2452   1.086       .  S
C2457      C2458   1.374       .  D
C2457      H2459   1.085       .  S
C2458      H2460   1.088       .  S
C2461      C2462   1.367       .  D
C2461      H2463   1.086       .  S
C2462      H2464   1.085       .  S
C2465      C2466   1.355       .  D
C2465      H2467   1.089       .  S
C2466      H2468   1.085       .  S
C2469      C2470   1.375       .  D
C2469      H2471   1.086       .  S
C2470      H2472   1.086       .  S
C2473      C4970   1.358       .  D
C2473      H2475   1.086       .  S
C2474      C4969   1.357       .  D
C2474      H2476   1.086       .  S
C2477      C2478   1.354       .  D
C2477      H2479   1.087       .  S
C2478      H2480   1.087       .  S
C2481      C2482   1.338       .  D
C2481      H2483   1.087       .  S
C2482      H2484   1.087       .  S
C2485      C2486   1.355       .  D
C2485      H2487   1.087       .  S
C2486      H2488   1.086       .  S
C2489      C2490   1.369       .  D
C2489      H2491   1.085       .  S
C2490      H2492   1.089       .  S
C2493      C2494   1.375       .  D
C2493      H2495   1.086       .  S
C2494      H2496   1.085       .  S
O2497     Zr2509   2.585       .  S
O2497      C2499   1.315       .  A
O2498     Zr2535   2.334       .  S
O2498      C2499   1.275       .  A
C2499      C3737   1.509       .  S
O2500     Zr2512   2.437       .  S
O2500      C2502   1.283       .  A
O2501     Zr2536   2.441       .  S
O2501      C2502   1.288       .  A
C2502      C3721   1.487   1_655  S
O2503     Zr2512   2.353       .  S
O2503      C2505   1.271       .  A
O2504     Zr2535   2.540       .  S
O2504      C2505   1.306       .  A
C2505      C3742   1.476       .  S
O2506     Zr2509   2.450       .  S
O2506      C2508   1.293       .  A
O2507     Zr2536   2.399       .  S
O2507      C2508   1.283       .  A
C2508      C3729   1.460       .  S
Zr2509     O2510   2.437       .  S
Zr2509     O2511   2.436       .  S
Zr2509     O2515   2.301       .  S
Zr2509     O2516   2.444       .  S
Zr2509     O2539   2.381       .  S
Zr2509     O2541   2.363       .  S
O2510      H2553   0.990       .  S
O2511      H2552   0.990       .  S
O2511      H2556   0.990       .  S
Zr2512     O2513   2.442       .  S
Zr2512     O2514   2.436       .  S
Zr2512     O2516   2.369       .  S
Zr2512     O2515   2.346       .  S
Zr2512     O2540   2.392       .  S
Zr2512     O2542   2.339       .  S
O2513      H2554   0.991       .  S
O2513      H2557   0.990       .  S
O2514      H2547   0.990       .  S
O2515     Zr2535   2.317       .  S
O2516     Zr2536   2.399       .  S
O2516      H2543   0.966       .  S
O2517     Zr2529   2.455       .  S
O2517      C2519   1.290       .  A
O2518     Zr2536   2.429       .  S
O2518      C2519   1.286       .  A
C2519      C3713   1.480       .  S
O2520     Zr2532   2.387       .  S
O2520      C2522   1.277       .  A
O2521     Zr2535   2.439       .  S
O2521      C2522   1.290       .  A
C2522      C3725   1.468       .  S
O2523     Zr2532   2.332       .  S
O2523      C2525   1.267       .  A
O2524     Zr2536   2.487       .  S
O2524      C2525   1.300       .  A
C2525      C3717   1.459       .  S
O2526     Zr2529   2.403       .  S
O2526      C2528   1.281       .  A
O2527     Zr2535   2.467       .  S
O2527      C2528   1.295       .  A
C2528      C3733   1.478       .  S
Zr2529     O2530   2.436       .  S
Zr2529     O2531   2.436       .  S
Zr2529     O2537   2.357       .  S
Zr2529     O2538   2.378       .  S
Zr2529     O2541   2.371       .  S
Zr2529     O2539   2.341       .  S
O2530      H2550   0.990       .  S
O2530      H2555   0.990       .  S
O2531      H2551   0.990       .  S
Zr2532     O2533   2.434       .  S
Zr2532     O2534   2.436       .  S
Zr2532     O2538   2.348       .  S
Zr2532     O2537   2.396       .  S
Zr2532     O2542   2.375       .  S
Zr2532     O2540   2.360       .  S
O2533      H2549   0.990       .  S
O2534      H2548   0.990       .  S
O2534      H2558   0.990       .  S
Zr2535     O2538   2.364       .  S
Zr2535     O2540   2.396       .  S
Zr2535     O2541   2.396       .  S
Zr2536     O2537   2.381       .  S
Zr2536     O2539   2.403       .  S
Zr2536     O2542   2.376       .  S
O2537      H2545   0.966       .  S
O2540      H2544   0.966       .  S
O2541      H2546   0.966       .  S
O2559     Zr3819   2.443   1_545  S
O2559      C2561   1.289       .  A
O2560     Zr2597   2.380       .  S
O2560      C3809   1.277       .  A
C2561      O3808   1.278       .  A
C2561      C3730   1.464       .  S
O2562     Zr2574   2.513       .  S
O2562      C2564   1.298       .  A
O2563     Zr2598   2.427       .  S
O2563      C2564   1.288       .  A
C2564      C3689   1.507       .  S
O2565     Zr2574   2.415       .  S
O2565      C2567   1.285       .  A
O2566     Zr2597   2.419       .  S
O2566      C2567   1.285       .  A
C2567      C3702   1.460       .  S
O2568     Zr2571   2.383       .  S
O2568      C2570   1.275       .  A
O2569     Zr2598   2.549       .  S
O2569      C2570   1.314       .  A
C2570      C3693   1.502       .  S
Zr2571     O3807   2.441       .  S
Zr2571     O3820   2.433       .  S
Zr2571     O2573   2.439       .  S
Zr2571     O2577   2.347       .  S
Zr2571     O2578   2.413       .  S
Zr2571     O2601   2.377       .  S
Zr2571     O2603   2.370       .  S
O2572     Zr3819   2.433   1_545  S
O2572      H2615   0.990       .  S
O2573      H2614   0.990       .  S
O2573      H3866   0.990       .  S
Zr2574     O2575   2.436       .  S
Zr2574     O2576   2.434       .  S
Zr2574     O2578   2.369       .  S
Zr2574     O2577   2.392       .  S
Zr2574     O2602   2.396       .  S
Zr2574     O2604   2.338       .  S
O2575      H2616   0.990       .  S
O2575      H2619   0.990       .  S
O2576      H2609   0.990       .  S
O2577     Zr2597   2.382       .  S
O2578     Zr2598   2.379       .  S
O2578      H2605   0.967       .  S
O2579     Zr2591   2.394       .  S
O2579      C2581   1.276       .  A
O2580     Zr2598   2.400       .  S
O2580      C2581   1.280       .  A
C2581      C3697   1.455       .  S
O2582     Zr2594   2.589       .  S
O2582      C2584   1.316       .  A
O2583     Zr2597   2.326       .  S
O2583      C2584   1.271       .  A
C2584      C3705   1.514       .  S
O2585     Zr2594   2.397       .  S
O2585      C2587   1.282       .  A
O2586     Zr2598   2.462       .  S
O2586      C2587   1.296       .  A
C2587      C3726   1.466       .  S
O2588     Zr2591   2.364       .  S
O2588      C2590   1.271       .  A
O2589     Zr2597   2.534       .  S
O2589      C2590   1.302       .  A
C2590      C3709   1.475       .  S
Zr2591     O2592   2.441       .  S
Zr2591     O2593   2.435       .  S
Zr2591     O2599   2.359       .  S
Zr2591     O2600   2.362       .  S
Zr2591     O2603   2.365       .  S
Zr2591     O2601   2.335       .  S
O2592      H2612   0.990       .  S
O2592      H2617   0.990       .  S
O2593      H2613   0.990       .  S
Zr2594     O2595   2.433       .  S
Zr2594     O2596   2.435       .  S
Zr2594     O2600   2.300       .  S
Zr2594     O2599   2.436       .  S
Zr2594     O2604   2.403       .  S
Zr2594     O2602   2.328       .  S
O2595      H2611   0.990       .  S
O2596      H2610   0.990       .  S
O2596      H2620   0.990       .  S
Zr2597     O2600   2.311       .  S
Zr2597     O2602   2.392       .  S
Zr2597     O2603   2.375       .  S
Zr2598     O2599   2.410       .  S
Zr2598     O2601   2.375       .  S
Zr2598     O2604   2.403       .  S
O2599      H2607   0.965       .  S
O2602      H2606   0.966       .  S
O2603      H2608   0.966       .  S
H2618      O3821   0.990       .  S
O2621     Zr2633   2.406       .  S
O2621      C2623   1.282       .  A
O2622     Zr2659   2.392       .  S
O2622      C2623   1.280       .  A
C2623      C3677   1.452       .  S
O2624     Zr2636   2.451       .  S
O2624      C2626   1.290       .  A
O2625     Zr2660   2.436       .  S
O2625      C2626   1.286       .  A
C2626      C3669   1.483       .  S
O2627     Zr2636   2.423       .  S
O2627      C2629   1.285       .  A
O2628     Zr2659   2.470       .  S
O2628      C2629   1.295       .  A
C2629      C3722   1.488       .  S
O2630     Zr2633   2.359       .  S
O2630      C2632   1.271       .  A
O2631     Zr2660   2.533       .  S
O2631      C2632   1.309       .  A
C2632      C3665   1.488       .  S
Zr2633     O2634   2.434       .  S
Zr2633     O2635   2.440       .  S
Zr2633     O2639   2.345       .  S
Zr2633     O2640   2.394       .  S
Zr2633     O2663   2.362       .  S
Zr2633     O2665   2.352       .  S
O2634      H2677   0.990       .  S
O2635      H2676   0.990       .  S
O2635      H2680   0.990       .  S
Zr2636     O2637   2.436       .  S
Zr2636     O2638   2.433       .  S
Zr2636     O2640   2.368       .  S
Zr2636     O2639   2.368       .  S
Zr2636     O2664   2.383       .  S
Zr2636     O2666   2.352       .  S
O2637      H2678   0.990       .  S
O2637      H2681   0.990       .  S
O2638      H2671   0.990       .  S
O2639     Zr2659   2.372       .  S
O2640     Zr2660   2.384       .  S
O2640      H2667   0.967       .  S
O2641     Zr2653   2.415       .  S
O2641      C2643   1.283       .  A
O2642     Zr2660   2.393       .  S
O2642      C2643   1.279       .  A
C2643      C3701   1.457       .  S
O2644     Zr2656   2.580       .  S
O2644      C2646   1.315       .  A
O2645     Zr2659   2.327       .  S
O2645      C2646   1.273       .  A
C2646      C3685   1.511       .  S
O2647     Zr3904   2.451       .  S
O2647      C2649   1.292       .  A
O2648     Zr2660   2.453   1_565  S
O2648      C3897   1.294       .  A
C2649      O3896   1.294       .  A
C2649      C3674   1.481       .  S
O2650     Zr2653   2.374       .  S
O2650      C2652   1.265       .  A
O2651     Zr2659   2.506       .  S
O2651      C2652   1.293       .  A
C2652      C3681   1.470       .  S
Zr2653     O2654   2.435       .  S
Zr2653     O2655   2.435       .  S
Zr2653     O2661   2.354       .  S
Zr2653     O2662   2.384       .  S
Zr2653     O2665   2.382       .  S
Zr2653     O2663   2.332       .  S
O2654      H2674   0.990   1_545  S
O2654      H2679   0.990       .  S
O2655      H2675   0.990       .  S
Zr2656     O3895   2.445   1_545  S
Zr2656     O3905   2.433   1_545  S
Zr2656     O2658   2.434       .  S
Zr2656     O2662   2.329       .  S
Zr2656     O2661   2.423       .  S
Zr2656     O2666   2.401       .  S
Zr2656     O2664   2.348       .  S
O2657     Zr3904   2.433       .  S
O2657      H2673   0.990       .  S
O2658      H2672   0.990   1_545  S
O2658      H3930   0.990   1_545  S
Zr2659     O2662   2.366       .  S
Zr2659     O2664   2.382       .  S
Zr2659     O2665   2.385       .  S
Zr2660     O2661   2.406       .  S
Zr2660     O2663   2.368       .  S
Zr2660     O2666   2.401       .  S
O2661      H2669   0.965       .  S
O2664      H2668   0.966       .  S
O2665      H2670   0.966       .  S
H2682      O3906   0.990       .  S
O2683     Zr2695   2.369       .  S
O2683      C2685   1.273       .  A
O2684     Zr2721   2.517       .  S
O2684      C2685   1.307       .  A
C2685      C3649   1.484       .  S
O2686     Zr2698   2.368       .  S
O2686      C2688   1.272       .  A
O2687     Zr2722   2.545       .  S
O2687      C2688   1.305       .  A
C2688      C3657   1.478       .  S
O2689     Zr2698   2.405       .  S
O2689      C2691   1.279       .  A
O2690     Zr2721   2.448       .  S
O2690      C2691   1.290       .  A
C2691      C3734   1.479       .  S
O2692     Zr2695   2.432       .  S
O2692      C2694   1.286       .  A
O2693     Zr2722   2.439       .  S
O2693      C2694   1.290       .  A
C2694      C3673   1.485       .  S
Zr2695     O2696   2.435       .  S
Zr2695     O2697   2.435       .  S
Zr2695     O2701   2.384       .  S
Zr2695     O2702   2.370       .  S
Zr2695     O2725   2.344       .  S
Zr2695     O2727   2.404       .  S
O2696      H2739   0.990       .  S
O2697      H2738   0.990       .  S
O2697      H2742   0.990       .  S
Zr2698     O2699   2.433       .  S
Zr2698     O2700   2.436       .  S
Zr2698     O2702   2.381       .  S
Zr2698     O2701   2.350       .  S
Zr2698     O2726   2.353       .  S
Zr2698     O2728   2.357       .  S
O2699      H2740   0.990       .  S
O2699      H2743   0.990       .  S
O2700      H2733   0.990       .  S
O2701     Zr2721   2.370       .  S
O2702     Zr2722   2.377       .  S
O2702      H2729   0.966       .  S
O2703     Zr2715   2.380       .  S
O2703      C2705   1.279       .  A
O2704     Zr2722   2.433       .  S
O2704      C2705   1.288       .  A
C2705      C3698   1.451       .  S
O2706     Zr2718   2.415       .  S
O2706      C2708   1.287       .  A
O2707     Zr2721   2.412       .  S
O2707      C2708   1.286       .  A
C2708      C3678   1.447       .  S
O2709     Zr2718   2.585       .  S
O2709      C2711   1.316       .  A
O2710     Zr2722   2.330       .  S
O2710      C2711   1.274       .  A
C2711      C3661   1.508       .  S
O2712     Zr2715   2.483       .  S
O2712      C2714   1.293       .  A
O2713     Zr2721   2.422       .  S
O2713      C2714   1.286       .  A
C2714      C3653   1.491       .  S
Zr2715     O2716   2.439       .  S
Zr2715     O2717   2.434       .  S
Zr2715     O2723   2.385       .  S
Zr2715     O2724   2.327       .  S
Zr2715     O2727   2.358       .  S
Zr2715     O2725   2.394       .  S
O2716      H2736   0.990       .  S
O2716      H2741   0.990       .  S
O2717      H2737   0.990       .  S
Zr2718     O2719   2.436       .  S
Zr2718     O2720   2.436       .  S
Zr2718     O2724   2.396       .  S
Zr2718     O2723   2.340       .  S
Zr2718     O2728   2.300       .  S
Zr2718     O2726   2.431       .  S
O2719      H2735   0.990       .  S
O2720      H2734   0.990       .  S
O2720      H2744   0.990       .  S
Zr2721     O2724   2.406       .  S
Zr2721     O2726   2.401       .  S
Zr2721     O2727   2.370       .  S
Zr2722     O2723   2.402       .  S
Zr2722     O2725   2.374       .  S
Zr2722     O2728   2.321       .  S
O2723      H2731   0.966       .  S
O2726      H2730   0.966       .  S
O2727      H2732   0.966       .  S
O2745     Zr2757   2.340       .  S
O2745      C2747   1.268       .  A
O2746     Zr2783   2.544       .  S
O2746      C2747   1.308       .  A
C2747      C3666   1.487       .  S
O2748     Zr2760   2.427   1_556  S
O2748      C2750   1.286       .  A
O2749     Zr2784   2.469       .  S
O2749      C2750   1.297       .  A
C2750      C3641   1.480       .  S
O2751     Zr2760   2.527       .  S
O2751      C2753   1.303       .  A
O2752     Zr2783   2.336       .  S
O2752      C2753   1.274       .  A
C2753      C3714   1.480       .  S
O2754     Zr2757   2.355   1_556  S
O2754      C2756   1.269       .  A
O2755     Zr2784   2.486       .  S
O2755      C2756   1.298       .  A
C2756      C3634   1.480       .  S
Zr2757     O2758   2.434       .  S
Zr2757     O2759   2.437       .  S
Zr2757     O2763   2.352       .  S
Zr2757     O2764   2.364       .  S
Zr2757     O2787   2.331   1_554  S
Zr2757     O2789   2.362       .  S
O2758      H2801   0.991       .  S
O2759      H2800   0.990       .  S
O2759      H2804   0.990       .  S
Zr2760     O2761   2.434       .  S
Zr2760     O2762   2.436       .  S
Zr2760     O2764   2.415       .  S
Zr2760     O2763   2.333       .  S
Zr2760     O2788   2.351       .  S
Zr2760     O2790   2.381   1_554  S
O2761      H2802   0.990       .  S
O2761      H2805   0.990       .  S
O2762      H2795   0.990       .  S
O2763     Zr2783   2.343       .  S
O2764     Zr2784   2.399   1_554  S
O2764      H2791   0.966       .  S
O2765     Zr2777   2.393       .  S
O2765      C2767   1.273       .  A
O2766     Zr2784   2.495       .  S
O2766      C2767   1.300       .  A
C2767      C3629   1.481       .  S
O2768     Zr2780   2.411       .  S
O2768      C2770   1.282   1_556  A
O2769     Zr2783   2.448       .  S
O2769      C2770   1.290       .  A
C2770      C3646   1.455       .  S
O2771     Zr2780   2.461       .  S
O2771      C2773   1.292       .  A
O2772     Zr2784   2.477       .  S
O2772      C2773   1.294       .  A
C2773      C3625   1.501       .  S
O2774     Zr2777   2.451       .  S
O2774      C2776   1.292   1_556  A
O2775     Zr2783   2.418       .  S
O2775      C2776   1.284       .  A
C2776      C3637   1.486       .  S
Zr2777     O2778   2.436       .  S
Zr2777     O2779   2.434       .  S
Zr2777     O2785   2.401       .  S
Zr2777     O2786   2.334       .  S
Zr2777     O2789   2.374   1_556  S
Zr2777     O2787   2.381       .  S
O2778      H2798   0.990       .  S
O2778      H2803   0.990       .  S
O2779      H2799   0.990       .  S
Zr2780     O2781   2.435       .  S
Zr2780     O2782   2.436       .  S
Zr2780     O2786   2.376       .  S
Zr2780     O2785   2.360       .  S
Zr2780     O2790   2.349       .  S
Zr2780     O2788   2.375   1_556  S
O2781      H2797   0.990       .  S
O2782      H2796   0.990       .  S
O2782      H2806   0.990       .  S
Zr2783     O2786   2.386   1_554  S
Zr2783     O2788   2.400       .  S
Zr2783     O2789   2.378       .  S
Zr2784     O2785   2.417       .  S
Zr2784     O2787   2.388       .  S
Zr2784     O2790   2.404       .  S
O2785      H2793   0.966       .  S
O2788      H2792   0.966       .  S
O2789      H2794   0.966       .  S
O2807     Zr2819   2.402       .  S
O2807      C2809   1.276       .  A
O2808     Zr2845   2.554       .  S
O2808      C2809   1.306       .  A
C2809      C3690   1.518       .  S
O2810     Zr2822   2.465   1_556  S
O2810      C2812   1.296       .  A
O2811     Zr2846   2.455       .  S
O2811      C2812   1.293       .  A
C2812      C4890   1.492       .  S
O2813     Zr2822   2.586       .  S
O2813      C2815   1.318       .  A
O2814     Zr2845   2.295       .  S
O2814      C2815   1.267       .  A
C2815      C3650   1.495       .  S
O2816     Zr2819   2.433   1_556  S
O2816      C2818   1.284       .  A
O2817     Zr2846   2.417       .  S
O2817      C2818   1.283       .  A
C2818      C3621   1.459       .  S
Zr2819     O2820   2.435       .  S
Zr2819     O2821   2.434       .  S
Zr2819     O2825   2.372       .  S
Zr2819     O2826   2.358   1_554  S
Zr2819     O2849   2.359   1_554  S
Zr2819     O2851   2.394       .  S
O2820      H2863   0.990       .  S
O2821      H2862   0.990       .  S
O2821      H2866   0.990       .  S
Zr2822     O2823   2.435       .  S
Zr2822     O2824   2.436       .  S
Zr2822     O2826   2.422   1_554  S
Zr2822     O2825   2.329       .  S
Zr2822     O2850   2.345       .  S
Zr2822     O2852   2.390   1_554  S
O2823      H2864   0.990       .  S
O2823      H2867   0.990       .  S
O2824      H2857   0.990       .  S
O2825     Zr2845   2.355       .  S
O2826     Zr2846   2.406       .  S
O2826      H2853   0.966       .  S
O2827     Zr2839   2.355       .  S
O2827      C2829   1.269       .  A
O2828     Zr2846   2.537       .  S
O2828      C2829   1.310       .  A
C2829      C3609   1.493       .  S
O2830     Zr2842   2.399       .  S
O2830      C2832   1.282       .  A
O2831     Zr2845   2.473       .  S
O2831      C2832   1.296   1_554  A
C2832      C3617   1.478       .  S
O2833     Zr2842   2.481       .  S
O2833      C2835   1.293       .  A
O2834     Zr2846   2.391       .  S
O2834      C2835   1.280       .  A
C2835      C3613   1.476       .  S
O2836     Zr2839   2.415       .  S
O2836      C2838   1.281   1_556  A
O2837     Zr2845   2.437       .  S
O2837      C2838   1.287       .  A
C2838      C3638   1.469       .  S
Zr2839     O2840   2.439       .  S
Zr2839     O2841   2.435       .  S
Zr2839     O2847   2.398       .  S
Zr2839     O2848   2.337       .  S
Zr2839     O2851   2.362   1_556  S
Zr2839     O2849   2.380       .  S
O2840      H2860   0.991       .  S
O2840      H2865   0.990       .  S
O2841      H2861   0.990       .  S
Zr2842     O2843   2.434       .  S
Zr2842     O2844   2.436       .  S
Zr2842     O2848   2.386       .  S
Zr2842     O2847   2.360       .  S
Zr2842     O2852   2.332       .  S
Zr2842     O2850   2.379   1_556  S
O2843      H2859   0.990       .  S
O2844      H2858   0.990       .  S
O2844      H2868   0.991       .  S
Zr2845     O2848   2.371   1_554  S
Zr2845     O2850   2.404       .  S
Zr2845     O2851   2.375       .  S
Zr2846     O2847   2.375       .  S
Zr2846     O2849   2.374       .  S
Zr2846     O2852   2.402       .  S
O2847      H2855   0.966       .  S
O2850      H2854   0.966       .  S
O2851      H2856   0.966       .  S
O2869     Zr2881   2.355   1_565  S
O2869      C2871   1.270   1_565  A
O2870     Zr2907   2.577       .  S
C2871      C3694   1.504   1_545  S
O2872     Zr2884   2.417   1_556  S
O2872      C2874   1.285       .  A
O2873     Zr4156   2.479       .  S
O2873      C2874   1.298       .  A
C2874      C3602   1.475       .  S
O2875     Zr2884   2.549       .  S
O2875      C4125   1.308       .  A
O2876     Zr2907   2.337       .  S
O2876      C2877   1.276       .  A
C2877      O4123   1.307   1_545  A
C2877      C3670   1.495       .  S
O2878     Zr4129   2.433   1_556  S
O2878      C2880   1.287       .  A
O2879      C2880   1.283       .  A
C2880      C3622   1.475       .  S
Zr2881     O4126   2.416   1_544  S
Zr2881     O4130   2.434   1_545  S
Zr2881     O2883   2.436       .  S
Zr2881     O2911   2.321   1_554  S
Zr2881     O2913   2.387       .  S
O2882     Zr4129   2.434       .  S
O2882      H2925   0.991       .  S
O2883      H2924   0.991       .  S
O2883      H2928   0.990       .  S
Zr2884     O2885   2.434       .  S
Zr2884     O2886   2.436       .  S
Zr2884     O2888   2.424   1_554  S
Zr2884     O4135   2.325       .  S
Zr2884     O4160   2.343       .  S
Zr2884     O2914   2.396   1_554  S
O2885      H2926   0.990       .  S
O2885      H2929   0.990       .  S
O2886      H2919   0.990       .  S
O2887     Zr4132   2.328   1_545  S
O2887     Zr2907   2.346       .  S
O2888     Zr4156   2.402       .  S
O2889     Zr2901   2.385       .  S
O2889      C2891   1.270       .  A
O2890      C2891   1.295       .  A
C2891      C3593   1.474       .  S
O2892     Zr2904   2.368       .  S
O2892      C2894   1.272       .  A
O2893     Zr2907   2.504       .  S
O2893      C2894   1.302   1_554  A
C2894      C3633   1.475       .  S
O2895     Zr2904   2.441       .  S
O2895      C2897   1.287   1_545  A
O2896     Zr4156   2.451       .  S
O2896      C4145   1.289       .  A
C2897      O4144   1.290       .  A
C2897      C4846   1.486       .  S
O2898     Zr2901   2.421       .  S
O2899     Zr2907   2.430       .  S
O2899      C2900   1.287       .  A
C2900      C3605   1.471       .  S
Zr2901     O2903   2.434       .  S
Zr2901     O2913   2.374   1_556  S
Zr2901     O2911   2.372       .  S
O2902      H2922   0.990       .  S
O2903      H2923   0.990       .  S
Zr2904     O2905   2.435       .  S
Zr2904     O2906   2.436       .  S
Zr2904     O2910   2.383       .  S
Zr2904     O2909   2.351       .  S
Zr2904     O4162   2.347   1_545  S
Zr2904     O2912   2.380   1_556  S
O2905      H2921   0.990       .  S
O2906      H4168   0.990   1_545  S
O2906      H2930   0.990       .  S
Zr2907     O2910   2.385   1_554  S
Zr2907     O2912   2.402       .  S
Zr2908     O4121   2.468       .  S
Zr2908     O4144   2.458       .  S
Zr2908     O4136   2.402       .  S
Zr2908     O2909   2.409   1_565  S
Zr2908     O4162   2.402       .  S
O2909      H2917   0.967       .  S
O2912     Zr4132   2.347   1_545  S
O2912      H2916   0.966       .  S
O2913      H2918   0.966       .  S
O2914     Zr4152   2.343       .  S
O2914     Zr4156   2.404       .  S
H2920      O4154   0.990       .  S
O2931     Zr2943   2.409       .  S
O2931      C2933   1.276       .  A
O2932      C2933   1.294       .  A
C2933      C3654   1.500       .  S
O2934     Zr2946   2.472   1_556  S
O2934      C2936   1.296   1_655  A
O2935     Zr2970   2.429       .  S
O2937     Zr2946   2.534       .  S
O2937      C2939   1.304       .  A
O2938     Zr2969   2.303       .  S
O2938      C2939   1.259       .  A
C2939      C3718   1.469       .  S
O2940     Zr2943   2.404       .  S
O2940      C2942   1.281   1_554  A
O2941     Zr2970   2.453       .  S
O2941      C2942   1.292       .  A
C2942      C3618   1.476       .  S
Zr2943     O2944   2.436       .  S
Zr2943     O2945   2.434       .  S
Zr2943     O2949   2.363       .  S
Zr2943     O2950   2.364       .  S
Zr2943     O2973   2.372   1_554  S
Zr2943     O2975   2.378       .  S
O2944      H2987   0.990       .  S
O2945      H2986   0.990       .  S
O2945      H2990   0.991       .  S
Zr2946     O2947   2.435   1_655  S
Zr2946     O2948   2.437       .  S
Zr2946     O2974   2.349       .  S
Zr2946     O2976   2.379   1_554  S
O2947      H2991   0.990   1_455  S
O2948      H2981   0.990       .  S
O2950     Zr2970   2.399   1_554  S
O2950      H2977   0.966       .  S
O2951     Zr2963   2.366       .  S
O2951      C2953   1.272       .  A
O2952     Zr2970   2.500       .  S
O2952      C2953   1.302       .  A
C2953      C3589   1.478       .  S
O2954     Zr2966   2.445       .  S
O2954      C2956   1.290   1_556  A
O2955     Zr2969   2.416       .  S
O2955      C2956   1.285       .  A
C2956      C3645   1.469       .  S
O2957     Zr2966   2.448       .  S
O2957      C2959   1.287       .  A
O2958     Zr2970   2.403       .  S
C2959      C3585   1.497       .  S
O2960     Zr2963   2.422       .  S
O2960      C2962   1.286   1_556  A
O2961     Zr2969   2.430   1_455  S
C2962      C3606   1.480       .  S
Zr2963     O2964   2.436       .  S
Zr2963     O2965   2.435       .  S
Zr2963     O2971   2.391       .  S
Zr2963     O2975   2.354   1_556  S
Zr2963     O2973   2.380       .  S
O2964      H2984   0.990       .  S
O2964      H2989   0.990       .  S
O2965      H2985   0.990       .  S
Zr2966     O2967   2.434       .  S
Zr2966     O2968   2.438       .  S
Zr2966     O2972   2.378       .  S
Zr2966     O2976   2.362       .  S
Zr2966     O2974   2.345   1_556  S
O2967      H2983   0.990       .  S
O2968      H2982   0.990       .  S
O2968      H2992   0.991       .  S
Zr2969     O2972   2.372   1_554  S
Zr2969     O2974   2.408       .  S
Zr2970     O2971   2.384       .  S
Zr2970     O2973   2.372       .  S
O2971      H2979   0.966       .  S
O2974      H2978   0.965       .  S
O2975      H2980   0.966       .  S
O2993     Zr3005   2.562       .  S
O2993      C2995   1.310       .  A
O2994     Zr3031   2.363       .  S
O2994      C2995   1.277       .  A
C2995      C3626   1.518       .  S
O2996     Zr3008   2.471       .  S
O2996      C2998   1.292       .  A
O2997     Zr3032   2.397       .  S
O2997      C2998   1.279       .  A
C2998      C3569   1.484   1_655  S
O2999     Zr3008   2.402       .  S
O2999      C3001   1.275       .  A
O3000     Zr3031   2.483       .  S
O3000      C3001   1.292       .  A
C3001      C3594   1.468       .  S
O3002     Zr3005   2.395       .  S
O3002      C3004   1.280       .  A
O3003     Zr3032   2.421       .  S
O3003      C3004   1.288       .  A
C3004      C4821   1.445   1_545  S
Zr3005     O3006   2.434       .  S
Zr3005     O3007   2.436       .  S
Zr3005     O3011   2.315       .  S
Zr3005     O3012   2.436       .  S
Zr3005     O3035   2.393       .  S
Zr3005     O3037   2.334       .  S
O3006      H3049   0.990       .  S
O3007      H3048   0.990       .  S
O3007      H3052   0.990       .  S
Zr3008     O3009   2.439       .  S
Zr3008     O3010   2.436       .  S
Zr3008     O3012   2.361       .  S
Zr3008     O3011   2.387       .  S
Zr3008     O3036   2.393       .  S
Zr3008     O3038   2.328       .  S
O3009      H3050   0.990       .  S
O3009      H3053   0.990       .  S
O3010      H3043   0.990       .  S
O3011     Zr3031   2.346       .  S
O3012     Zr3032   2.402       .  S
O3012      H3039   0.966       .  S
O3013     Zr3025   2.508       .  S
O3013      C3015   1.301       .  A
O3014     Zr3032   2.437       .  S
O3014      C3015   1.285       .  A
C3015      C3561   1.508       .  S
O3016     Zr3028   2.470       .  S
O3016      C3018   1.294       .  A
O3017     Zr3031   2.403       .  S
O3017      C3018   1.281       .  A
C3018      C3578   1.486       .  S
O3019     Zr3028   2.372       .  S
O3019      C3021   1.274       .  A
O3020     Zr3032   2.495       .  S
O3020      C3021   1.302       .  A
C3021      C3566   1.474       .  S
O3022     Zr3025   2.415       .  S
O3022      C3024   1.286       .  A
O3023     Zr3031   2.406       .  S
O3023      C3024   1.283       .  A
C3024      C3581   1.451       .  S
Zr3025     O3026   2.436       .  S
Zr3025     O3027   2.435       .  S
Zr3025     O3033   2.361       .  S
Zr3025     O3034   2.392       .  S
Zr3025     O3037   2.394       .  S
Zr3025     O3035   2.333       .  S
O3026      H3046   0.990       .  S
O3026      H3051   0.990       .  S
O3027      H3047   0.990       .  S
Zr3028     O3029   2.435       .  S
Zr3028     O3030   2.438       .  S
Zr3028     O3034   2.332       .  S
Zr3028     O3033   2.417       .  S
Zr3028     O3038   2.386       .  S
Zr3028     O3036   2.363       .  S
O3029      H3045   0.990       .  S
O3030      H3044   0.990       .  S
O3030      H3054   0.990       .  S
Zr3031     O3034   2.381       .  S
Zr3031     O3036   2.379       .  S
Zr3031     O3037   2.393       .  S
Zr3032     O3033   2.391       .  S
Zr3032     O3035   2.392       .  S
Zr3032     O3038   2.373       .  S
O3033      H3041   0.967       .  S
O3036      H3040   0.966       .  S
O3037      H3042   0.966       .  S
O3055     Zr3067   2.586       .  S
O3055      C3057   1.319       .  A
O3056     Zr3093   2.310       .  S
O3056      C3057   1.267       .  A
C3057      C3610   1.495       .  S
O3058     Zr3070   2.397       .  S
O3058      C3060   1.280       .  A
O3059     Zr3094   2.403       .  S
O3059      C3060   1.281       .  A
O3061     Zr3070   2.390       .  S
O3061      C3063   1.266       .  A
O3062     Zr3093   2.518       .  S
O3062      C3063   1.297       .  A
C3063      C3586   1.490       .  S
O3064     Zr3067   2.496       .  S
O3064      C3066   1.301       .  A
O3065     Zr3094   2.397       .  S
O3065      C3066   1.283       .  A
C3066      C3577   1.479       .  S
Zr3067     O3068   2.434       .  S
Zr3067     O3069   2.436       .  S
Zr3067     O3073   2.349       .  S
Zr3067     O3074   2.413       .  S
Zr3067     O3097   2.393       .  S
Zr3067     O3099   2.351       .  S
O3068      H3111   0.990       .  S
O3069      H3110   0.990       .  S
O3069      H3114   0.990       .  S
Zr3070     O3071   2.436       .  S
Zr3070     O3072   2.434   1_655  S
Zr3070     O3074   2.363       .  S
Zr3070     O3073   2.375       .  S
Zr3070     O3098   2.376       .  S
Zr3070     O3100   2.349       .  S
O3071      H3112   0.990       .  S
O3071      H3115   0.990       .  S
O3072      H3105   0.990       .  S
O3073     Zr3093   2.366       .  S
O3074     Zr3094   2.408       .  S
O3074      H3101   0.966       .  S
O3075     Zr3087   2.512       .  S
O3075      C3077   1.303       .  A
O3076     Zr3094   2.432       .  S
O3076      C3077   1.285       .  A
C3077      C3545   1.507       .  S
O3078     Zr3090   2.396       .  S
O3078      C3080   1.276       .  A
O3079     Zr3093   2.385       .  S
O3079      C3080   1.282       .  A
C3080      C3574   1.438       .  S
O3081     Zr3090   2.382       .  S
O3081      C3083   1.266       .  A
O3082     Zr3094   2.490       .  S
O3082      C3083   1.295       .  A
C3083      C3549   1.480       .  S
O3084     Zr3087   2.455       .  S
O3084      C3086   1.292       .  A
O3085     Zr3093   2.446       .  S
O3085      C3086   1.290       .  A
C3086      C3557   1.488       .  S
Zr3087     O3088   2.436       .  S
Zr3087     O3089   2.434       .  S
Zr3087     O3095   2.363       .  S
Zr3087     O3096   2.388       .  S
Zr3087     O3099   2.384       .  S
Zr3087     O3097   2.347       .  S
O3088      H3108   0.990       .  S
O3088      H3113   0.990       .  S
O3089      H3109   0.990       .  S
Zr3090     O3091   2.434       .  S
Zr3090     O3092   2.438       .  S
Zr3090     O3096   2.361       .  S
Zr3090     O3095   2.398       .  S
Zr3090     O3100   2.364       .  S
Zr3090     O3098   2.364       .  S
O3091      H3107   0.990       .  S
O3092      H3106   0.990       .  S
O3092      H3116   0.990       .  S
Zr3093     O3096   2.380       .  S
Zr3093     O3098   2.370       .  S
Zr3093     O3099   2.393       .  S
Zr3094     O3095   2.390       .  S
Zr3094     O3097   2.395       .  S
Zr3094     O3100   2.375       .  S
O3095      H3103   0.966       .  S
O3098      H3102   0.966       .  S
O3099      H3104   0.965       .  S
O3117     Zr3129   2.556       .  S
O3117      C3119   1.310       .  A
O3118     Zr3155   2.303       .  S
O3118      C3119   1.267       .  A
C3119      C3590   1.483       .  S
O3120     Zr3132   2.419       .  S
O3120      C3122   1.283       .  A
O3121     Zr3156   2.376       .  S
O3121      C3122   1.275       .  A
C3122      C3582   1.453       .  S
O3123     Zr3132   2.388       .  S
O3123      C3125   1.274       .  A
O3124     Zr3155   2.521       .  S
O3124      C3125   1.299       .  A
C3125      C3630   1.479       .  S
O3126     Zr3129   2.392       .  S
O3126      C3128   1.279       .  A
O3127     Zr3156   2.457       .  S
O3127      C3128   1.297       .  A
C3128      C3541   1.465       .  S
Zr3129     O3130   2.433       .  S
Zr3129     O3131   2.436       .  S
Zr3129     O3135   2.305       .  S
Zr3129     O3136   2.432       .  S
Zr3129     O3159   2.397       .  S
Zr3129     O3161   2.328       .  S
O3130      H3173   0.990       .  S
O3131      H3172   0.990       .  S
O3131      H3176   0.990       .  S
Zr3132     O3133   2.439       .  S
Zr3132     O3134   2.437       .  S
Zr3132     O3136   2.365       .  S
Zr3132     O3135   2.369       .  S
Zr3132     O3160   2.380       .  S
Zr3132     O3162   2.327       .  S
O3133      H3174   0.990       .  S
O3133      H3177   0.990       .  S
O3134      H3167   0.990       .  S
O3135     Zr3155   2.327       .  S
O3136     Zr3156   2.402       .  S
O3136      H3163   0.966       .  S
O3137     Zr3149   2.513       .  S
O3137      C3139   1.303       .  A
O3138     Zr3156   2.434       .  S
O3138      C3139   1.284       .  A
C3139      C3534   1.510       .  S
O3140     Zr3152   2.444       .  S
O3140      C3142   1.289       .  A
O3141     Zr3155   2.372       .  S
O3141      C3142   1.274       .  A
C3142      C3537   1.459       .  S
O3143     Zr3152   2.345       .  S
O3143      C3145   1.268       .  A
O3144     Zr3156   2.521       .  S
O3144      C3145   1.308       .  A
C3145      C3529   1.475       .  S
O3146     Zr3149   2.410       .  S
O3146      C3148   1.285       .  A
O3147     Zr3155   2.423       .  S
O3147      C3148   1.286       .  A
C3148      C3553   1.459       .  S
Zr3149     O3150   2.436       .  S
Zr3149     O3151   2.434       .  S
Zr3149     O3157   2.353       .  S
Zr3149     O3158   2.390       .  S
Zr3149     O3161   2.395       .  S
Zr3149     O3159   2.333       .  S
O3150      H3170   0.990       .  S
O3150      H3175   0.990       .  S
O3151      H3171   0.990       .  S
Zr3152     O3153   2.434       .  S
Zr3152     O3154   2.439       .  S
Zr3152     O3158   2.325       .  S
Zr3152     O3157   2.415       .  S
Zr3152     O3162   2.377       .  S
Zr3152     O3160   2.358       .  S
O3153      H3169   0.990       .  S
O3154      H3168   0.990       .  S
O3154      H3178   0.990       .  S
Zr3155     O3158   2.377       .  S
Zr3155     O3160   2.366       .  S
Zr3155     O3161   2.392       .  S
Zr3156     O3157   2.389       .  S
Zr3156     O3159   2.389       .  S
Zr3156     O3162   2.375       .  S
O3157      H3165   0.967       .  S
O3160      H3164   0.966       .  S
O3161      H3166   0.966       .  S
O3179     Zr3191   2.524       .  S
O3179      C3181   1.303       .  A
O3180     Zr4465   2.370       .  S
O3180      C3181   1.280       .  A
C3181      C3597   1.502       .  S
O3182     Zr3194   2.457       .  S
O3182      C3184   1.290       .  A
O3183     Zr3218   2.426       .  S
O3183      C3184   1.286       .  A
C3184      C3558   1.486       .  S
O3185     Zr3194   2.419       .  S
O3185      C4435   1.275       .  A
O3186     Zr3217   2.457   1_565  S
O3186      C3187   1.284       .  A
C3187      O4433   1.275       .  A
C3187      C4862   1.484       .  S
O3188     Zr3191   2.450       .  S
O3188      C3190   1.293       .  A
O3189     Zr3218   2.383       .  S
O3189      C3190   1.279       .  A
C3190      C3538   1.454       .  S
Zr3191     O3192   2.434       .  S
Zr3191     O3193   2.436       .  S
Zr3191     O3197   2.346       .  S
Zr3191     O3198   2.406       .  S
Zr3191     O3221   2.375       .  S
Zr3191     O3223   2.362       .  S
O3192      H3235   0.990       .  S
O3193      H3234   0.990       .  S
O3193      H3238   0.990       .  S
Zr3194     O3195   2.436       .  S
Zr3194     O3196   2.434       .  S
Zr3194     O3198   2.361       .  S
Zr3194     O3197   2.379       .  S
Zr3194     O4470   2.390       .  S
Zr3194     O3224   2.357       .  S
O3195      H3236   0.990       .  S
O3195      H3239   0.990       .  S
O3196      H4477   0.990       .  S
O3197     Zr4465   2.383       .  S
O3198     Zr3218   2.398       .  S
O3198      H3225   0.966       .  S
O3199     Zr3211   2.477       .  S
O3199      C3201   1.296       .  A
O3200     Zr3218   2.442       .  S
O3200      C3201   1.288       .  A
C3201      C3525   1.492       .  S
O3202     Zr3214   2.383       .  S
O3202      C3204   1.274       .  A
O3203     Zr3217   2.444       .  S
O3203      C3204   1.292       .  A
C3204      C3542   1.460       .  S
O3205     Zr3214   2.342       .  S
O3205      C4455   1.267   1_545  A
O3206     Zr3218   2.482       .  S
O3206      C3207   1.298       .  A
C3207      O4453   1.267       .  A
C3207      C4769   1.467       .  S
O3208     Zr4459   2.479   1_545  S
O3208      C3210   1.296       .  A
O3209     Zr3217   2.404       .  S
O3209      C3210   1.283       .  A
C3210      C3570   1.478       .  S
Zr3211     O4456   2.464       .  S
Zr3211     O4460   2.435       .  S
Zr3211     O3213   2.435       .  S
Zr3211     O3219   2.380       .  S
Zr3211     O4468   2.375       .  S
Zr3211     O3223   2.376       .  S
Zr3211     O3221   2.353       .  S
O3212     Zr4459   2.436   1_545  S
O3212      H3232   0.990   1_545  S
O3212      H3237   0.990       .  S
O3213      H3233   0.990       .  S
Zr3214     O3215   2.435       .  S
Zr3214     O3216   2.440       .  S
Zr3214     O3220   2.348       .  S
Zr3214     O4467   2.386   1_545  S
Zr3214     O4472   2.366   1_545  S
Zr3214     O3222   2.354       .  S
O3215      H3231   0.990       .  S
O3216      H3230   0.990       .  S
O3216      H3240   0.990       .  S
Zr3217     O4428   2.375   1_545  S
Zr3217     O4445   2.382   1_545  S
Zr3217     O3220   2.376       .  S
Zr3217     O3222   2.379       .  S
Zr3217     O4471   2.396   1_545  S
Zr3218     O3219   2.386       .  S
Zr3218     O3221   2.395       .  S
Zr3218     O3224   2.364       .  S
O3219     Zr4462   2.380       .  S
O3219      H4475   0.967       .  S
O3220     Zr4459   2.380   1_545  S
O3222     Zr4442   2.389   1_545  S
O3222      H3226   0.966       .  S
O3223     Zr4465   2.392       .  S
O3223      H3228   0.966       .  S
O3224     Zr4462   2.366       .  S
H3227      O4467   0.967       .  S
H3229      O4444   0.990   1_545  S
O3241     Zr3253   2.376       .  S
O3241      C3243   1.267       .  A
O3242     Zr3279   2.508       .  S
O3242      C4491   1.294       .  A
C3243      O4490   1.294   1_545  A
C3243      C3682   1.493       .  S
O3244     Zr3256   2.401       .  S
O3244      C3246   1.283       .  A
O3245     Zr3280   2.414       .  S
O3245      C3246   1.284       .  A
C3246      C3517   1.454       .  S
O3247     Zr4504   2.481       .  S
O3247      C3249   1.296       .  A
O3248     Zr3279   2.458       .  S
O3248      C3249   1.289       .  A
C3249      C3706   1.505       .  S
O3250     Zr3253   2.438       .  S
O3250      C3252   1.285       .  A
O3251     Zr3280   2.374       .  S
O3251      C3252   1.277       .  A
C3252      C3513   1.459       .  S
Zr3253     O3254   2.435       .  S
Zr3253     O3255   2.442       .  S
Zr3253     O3259   2.406       .  S
Zr3253     O3260   2.351       .  S
Zr3253     O3283   2.346       .  S
Zr3253     O3285   2.386       .  S
O3254      H3297   0.990       .  S
O3255      H3296   0.989       .  S
O3255      H3300   0.990       .  S
Zr3256     O4495   2.475   1_545  S
Zr3256     O3257   2.435       .  S
Zr3256     O4506   2.435   1_545  S
Zr3256     O3260   2.394       .  S
Zr3256     O3259   2.353       .  S
Zr3256     O4532   2.345   1_545  S
Zr3256     O4534   2.389       .  S
O3257      H3298   0.990       .  S
O3257      H3301   0.990       .  S
O3258     Zr4504   2.435       .  S
O3258      H3291   0.990       .  S
O3259     Zr4527   2.388   1_545  S
O3260     Zr3280   2.379       .  S
O3260      H3287   0.966       .  S
O3261     Zr4521   2.394   1_545  S
O3261      C3263   1.273       .  A
O3262     Zr3280   2.447       .  S
O3262      C3263   1.285       .  A
C3263      C3522   1.454       .  S
O3264     Zr3276   2.418       .  S
O3264      C3266   1.284       .  A
O3265     Zr3279   2.425       .  S
O3265      C3266   1.290       .  A
C3266      C3509   1.462       .  S
O3267     Zr3276   2.592       .  S
O3267      C3269   1.317       .  A
O3268     Zr3280   2.320       .  S
O3268      C4517   1.268       .  A
C3269      O4516   1.268       .  A
C3269      C4810   1.512       .  S
O3270     Zr3273   2.403       .  S
O3270      C3272   1.280       .  A
O3271     Zr3279   2.402       .  S
O3271      C3272   1.281       .  A
C3272      C3505   1.459       .  S
Zr3273     O4509   2.393       .  S
Zr3273     O3274   2.435       .  S
Zr3273     O4523   2.436       .  S
Zr3273     O3281   2.373       .  S
Zr3273     O3282   2.349       .  S
Zr3273     O4533   2.334       .  S
Zr3273     O4531   2.377       .  S
O3274      H3294   0.989       .  S
O3274      H3299   0.989       .  S
O3275     Zr4521   2.435   1_545  S
O3275      H3295   0.990       .  S
Zr3276     O3277   2.435       .  S
Zr3276     O3278   2.434       .  S
Zr3276     O3282   2.413       .  S
Zr3276     O3281   2.315       .  S
Zr3276     O3286   2.332       .  S
Zr3276     O3284   2.416       .  S
O3277      H3293   0.990       .  S
O3278      H3292   0.990       .  S
O3278      H3302   0.990       .  S
Zr3279     O4507   2.388       .  S
Zr3279     O3282   2.405       .  S
Zr3279     O3284   2.413       .  S
Zr3279     O4533   2.400       .  S
Zr3280     O4529   2.389   1_545  S
Zr3280     O3283   2.359       .  S
Zr3280     O4534   2.378       .  S
O3281     Zr4528   2.388       .  S
O3281      H3289   0.964       .  S
O3283     Zr4521   2.378   1_545  S
O3284     Zr4504   2.346       .  S
O3284      H3288   0.966       .  S
O3285     Zr4521   2.337   1_545  S
O3285     Zr4527   2.402   1_545  S
O3285      H3290   0.965       .  S
O3286     Zr4504   2.390       .  S
O3286     Zr4528   2.379       .  S
O3303     Zr3315   2.336       .  S
O3303      C3305   1.267       .  A
O3304     Zr3341   2.538       .  S
O3304      C3305   1.309       .  A
C3305      C3658   1.484       .  S
O3306     Zr3318   2.400       .  S
O3306      C3308   1.282       .  A
O3307     Zr3342   2.433       .  S
O3307      C3308   1.288       .  A
C3308      C3502   1.462       .  S
O3309     Zr3318   2.468       .  S
O3309      C3311   1.293       .  A
O3310     Zr3341   2.466       .  S
O3310      C3311   1.291       .  A
C3311      C3738   1.501       .  S
O3312     Zr3315   2.398       .  S
O3312      C3314   1.277       .  A
O3313     Zr3342   2.413       .  S
O3313      C3314   1.285       .  A
C3314      C3510   1.457       .  S
Zr3315     O3316   2.434       .  S
Zr3315     O3317   2.437       .  S
Zr3315     O3321   2.389       .  S
Zr3315     O3322   2.336       .  S
Zr3315     O3345   2.356       .  S
Zr3315     O3347   2.370       .  S
O3316      H3359   0.990       .  S
O3317      H3358   0.990       .  S
O3317      H3362   0.991       .  S
Zr3318     O3319   2.434       .  S
Zr3318     O3320   2.435       .  S
Zr3318     O3322   2.385       .  S
Zr3318     O3321   2.367       .  S
Zr3318     O3346   2.335       .  S
Zr3318     O3348   2.386       .  S
O3319      H3360   0.990       .  S
O3319      H3363   0.990       .  S
O3320      H3353   0.990       .  S
O3321     Zr3341   2.377       .  S
O3322     Zr3342   2.381       .  S
O3322      H3349   0.966       .  S
O3323     Zr3335   2.376       .  S
O3323      C3325   1.271       .  A
O3324     Zr3342   2.491       .  S
O3324      C3325   1.294       .  A
C3325      C3530   1.471       .  S
O3326     Zr3338   2.455       .  S
O3326      C3328   1.292       .  A
O3327     Zr3341   2.396       .  S
O3327      C3328   1.285       .  A
C3328      C3514   1.463       .  S
O3329     Zr3338   2.608       .  S
O3329      C3331   1.321       .  A
O3330     Zr3342   2.308       .  S
O3330      C3331   1.267       .  A
C3331      C3546   1.516       .  S
O3332     Zr3335   2.387       .  S
O3332      C3334   1.278       .  A
O3333     Zr3341   2.420       .  S
O3333      C3334   1.284       .  A
C3334      C3497   1.457       .  S
Zr3335     O3336   2.436       .  S
Zr3335     O3337   2.434       .  S
Zr3335     O3343   2.366       .  S
Zr3335     O3344   2.339       .  S
Zr3335     O3347   2.332       .  S
Zr3335     O3345   2.380       .  S
O3336      H3356   0.989       .  S
O3336      H3361   0.990       .  S
O3337      H3357   0.990       .  S
Zr3338     O3339   2.437       .  S
Zr3338     O3340   2.434       .  S
Zr3338     O3344   2.415       .  S
Zr3338     O3343   2.319       .  S
Zr3338     O3348   2.335       .  S
Zr3338     O3346   2.407       .  S
O3339      H3355   0.990       .  S
O3340      H3354   0.990       .  S
O3340      H3364   0.990       .  S
Zr3341     O3344   2.408       .  S
Zr3341     O3346   2.420       .  S
Zr3341     O3347   2.370       .  S
Zr3342     O3343   2.393       .  S
Zr3342     O3345   2.356       .  S
Zr3342     O3348   2.391       .  S
O3343      H3351   0.964       .  S
O3346      H3350   0.966       .  S
O3347      H3352   0.964       .  S
O3365     Zr3377   2.340   1_655  S
O3365      C3367   1.269       .  A
O3366      C3367   1.308       .  A
C3367      C3741   1.478       .  S
O3368     Zr3380   2.386       .  S
O3368      C3370   1.280       .  A
O3369     Zr3404   2.437       .  S
O3369      C3370   1.289       .  A
C3370      C3498   1.458       .  S
O3371     Zr3380   2.467       .  S
O3371      C3373   1.293       .  A
O3372     Zr3403   2.462       .  S
O3372      C3373   1.289       .  A
C3373      C3686   1.501       .  S
O3374      C3376   1.278       .  A
O3375     Zr3404   2.388       .  S
O3375      C3376   1.280       .  A
C3376      C3489   1.449       .  S
Zr3377     O3379   2.438   1_455  S
Zr3377     O3407   2.357   1_455  S
Zr3377     O3409   2.375   1_455  S
O3378      H3421   0.989       .  S
O3379      H3420   0.990       .  S
O3379      H3424   0.991       .  S
Zr3380     O3381   2.435       .  S
Zr3380     O3382   2.435       .  S
Zr3380     O3384   2.386       .  S
Zr3380     O3383   2.360       .  S
Zr3380     O3408   2.335       .  S
Zr3380     O3410   2.392       .  S
O3381      H3422   0.990       .  S
O3381      H3425   0.990       .  S
O3382      H3415   0.990       .  S
O3383     Zr3403   2.379       .  S
O3384     Zr3404   2.383       .  S
O3384      H3411   0.966       .  S
O3385     Zr3397   2.378       .  S
O3385      C3387   1.272       .  A
O3386     Zr3404   2.481       .  S
C3387      C3565   1.465       .  S
O3388     Zr3400   2.432       .  S
O3388      C3390   1.287       .  A
O3389     Zr3403   2.423       .  S
O3389      C3390   1.291       .  A
C3390      C3493   1.466       .  S
O3391     Zr3400   2.607       .  S
O3391      C3393   1.321       .  A
O3392     Zr3404   2.313       .  S
O3392      C3393   1.267       .  A
C3393      C3533   1.518       .  S
O3394     Zr3397   2.410       .  S
O3394      C3396   1.282       .  A
O3395      C3396   1.279       .  A
C3396      C3518   1.455       .  S
Zr3397     O3398   2.434       .  S
Zr3397     O3399   2.436       .  S
Zr3397     O3406   2.348   1_655  S
Zr3397     O3409   2.310       .  S
Zr3397     O3407   2.379       .  S
O3398      H3418   0.989       .  S
O3398      H3423   0.989       .  S
O3399      H3419   0.990       .  S
Zr3400     O3401   2.434       .  S
Zr3400     O3402   2.434       .  S
Zr3400     O3405   2.317       .  S
Zr3400     O3410   2.328       .  S
Zr3400     O3408   2.416       .  S
O3401      H3417   0.990       .  S
O3402      H3416   0.990       .  S
O3402      H3426   0.990       .  S
Zr3403     O3408   2.415       .  S
Zr3404     O3405   2.388       .  S
Zr3404     O3410   2.384       .  S
O3405      H3413   0.965       .  S
O3408      H3412   0.966       .  S
O3409      H3414   0.963       .  S
O3427      C3429   1.268       .  A
O3428      C3429   1.305       .  A
C3429      C3710   1.480       .  S
O3430     Zr3442   2.402       .  S
O3430      C3432   1.283       .  A
O3431     Zr3466   2.421       .  S
O3431      C3432   1.286       .  A
C3432      C3506   1.455       .  S
O3433     Zr3442   2.472       .  S
O3433      C3435   1.294       .  A
O3434     Zr3465   2.466       .  S
O3434      C3435   1.290       .  A
C3435      C3662   1.502       .  S
O3436     Zr3439   2.421       .  S
O3436      C3438   1.281       .  A
O3437     Zr3466   2.401       .  S
O3437      C3438   1.283       .  A
C3438      C3494   1.466       .  S
Zr3439     O3440   2.436       .  S
Zr3439     O3445   2.393       .  S
Zr3439     O3446   2.335       .  S
Zr3439     O3469   2.354       .  S
O3440      H3483   0.990       .  S
O3441      H3482   0.990       .  S
O3441      H3486   0.991       .  S
Zr3442     O3443   2.434       .  S
Zr3442     O3444   2.436       .  S
Zr3442     O3446   2.393       .  S
Zr3442     O3445   2.366       .  S
Zr3442     O3470   2.339       .  S
Zr3442     O3472   2.386       .  S
O3443      H3484   0.990       .  S
O3443      H3487   0.990       .  S
O3444      H3477   0.990       .  S
O3445     Zr3465   2.379       .  S
O3446     Zr3466   2.381       .  S
O3446      H3473   0.966       .  S
O3447     Zr3459   2.393       .  S
O3448     Zr3466   2.481       .  S
O3448      C3449   1.289       .  A
O3450     Zr3462   2.424       .  S
O3450      C3452   1.285       .  A
O3451     Zr3465   2.404       .  S
O3451      C3452   1.287       .  A
C3452      C3490   1.455       .  S
O3453     Zr3462   2.569       .  S
O3453      C3455   1.312       .  A
O3454     Zr3466   2.319       .  S
O3454      C3455   1.269       .  A
C3455      C3526   1.502       .  S
O3456     Zr3459   2.407       .  S
O3456      C3458   1.281       .  A
O3457      C3458   1.283       .  A
C3458      C3501   1.459       .  S
Zr3459     O3460   2.444       .  S
Zr3459     O3461   2.435       .  S
Zr3459     O3471   2.349       .  S
O3460      H3480   0.988       .  S
O3460      H3485   0.990       .  S
O3461      H3481   0.991       .  S
Zr3462     O3463   2.436       .  S
Zr3462     O3464   2.434       .  S
Zr3462     O3468   2.411       .  S
Zr3462     O3467   2.328       .  S
Zr3462     O3472   2.333       .  S
Zr3462     O3470   2.405       .  S
O3463      H3479   0.989       .  S
O3464      H3478   0.990       .  S
O3464      H3488   0.990       .  S
Zr3465     O3468   2.403       .  S
Zr3465     O3470   2.415       .  S
Zr3466     O3467   2.393       .  S
Zr3466     O3469   2.360       .  S
Zr3466     O3472   2.389       .  S
O3467      H3475   0.965       .  S
O3470      H3474   0.966       .  S
O3471      H3476   0.964       .  S
C3489      C3490   1.337       .  D
C3489      H3491   1.087       .  S
C3490      H3492   1.087       .  S
C3493      C4742   1.338   1_545  D
C3493      H3495   1.087   1_545  S
C3494      C4741   1.339       .  D
C3494      H3496   1.087       .  S
C3497      C3498   1.350       .  D
C3497      H3499   1.087       .  S
C3498      H3500   1.087       .  S
C3501      C3502   1.347       .  D
C3501      H3503   1.087       .  S
C3502      H3504   1.087       .  S
C3505      C3506   1.346       .  D
C3505      H3507   1.087       .  S
C3506      H3508   1.087       .  S
C3509      C3510   1.335       .  D
C3509      H3511   1.087       .  S
C3510      H3512   1.087       .  S
C3513      C3514   1.347       .  D
C3513      H3515   1.087       .  S
C3514      H3516   1.087       .  S
C3517      C3518   1.342       .  D
C3517      H3519   1.087       .  S
C3518      H3520   1.087       .  S
C3521      C4455   1.469       .  S
C3521      C3522   1.359   1_565  D
C3521      H3523   1.078       .  S
C3522      H3524   1.086       .  S
C3525      C3526   1.370       .  D
C3525      H3527   1.088       .  S
C3526      H3528   1.085       .  S
C3529      C3530   1.367       .  D
C3529      H3531   1.073       .  S
C3530      H3532   1.086       .  S
C3533      C3534   1.382       .  D
C3533      H3535   1.085       .  S
C3534      H3536   1.087       .  S
C3537      C3538   1.333       .  D
C3537      H3539   1.088       .  S
C3538      H3540   1.087       .  S
C3541      C3542   1.328       .  D
C3541      H3543   1.087       .  S
C3542      H3544   1.088       .  S
C3545      C3546   1.381       .  D
C3545      H3547   1.087       .  S
C3546      H3548   1.085       .  S
C3549      C3550   1.361       .  D
C3549      H3551   1.080       .  S
C3553      C3554   1.343       .  D
C3553      H3555   1.087       .  S
C3557      C3558   1.349       .  D
C3557      H3559   1.087       .  S
C3558      H3560   1.087       .  S
C3561      C3562   1.379       .  D
C3561      H3563   1.087       .  S
C3562      C4517   1.515       .  S
C3562      H4812   1.085       .  S
H3564      C4810   1.085       .  S
C3565      C3566   1.361       .  D
C3565      H3567   1.086       .  S
C3566      H3568   1.080       .  S
C3569      H3571   1.087       .  S
C3570      H3572   1.087       .  S
C3573      C4252   1.442       .  S
C3573      C3574   1.331       .  D
C3573      H4823   1.088       .  S
C3574      H3576   1.088       .  S
H3575      C4821   1.089       .  S
C3577      C3578   1.340       .  D
C3577      H3579   1.087       .  S
C3578      H3580   1.087       .  S
C3581      C3582   1.338       .  D
C3581      H3583   1.087       .  S
C3582      H3584   1.087       .  S
C3585      C3586   1.351       .  D
C3585      H3587   1.088       .  S
C3586      H3588   1.086       .  S
C3589      C3590   1.374       .  D
C3589      H3591   1.086       .  S
C3590      H3592   1.086       .  S
C3593      C3594   1.359       .  D
C3593      H3595   1.082       .  S
C3594      H3596   1.083       .  S
C3597      C3598   1.360       .  D
C3597      H3599   1.085       .  S
C3598      C4145   1.482       .  S
C3598      H4848   1.087       .  S
H3600      C4846   1.087   1_545  S
C3601      C3602   1.338       .  D
C3601      H3603   1.086       .  S
C3602      H3604   1.089   1_556  S
C3605      C3606   1.345       .  D
C3606      H3608   1.086       .  S
C3609      C3610   1.383       .  D
C3609      H3611   1.086       .  S
C3610      H3612   1.085       .  S
C3613      C3614   1.347       .  D
C3613      H3615   1.087       .  S
C3614      C4435   1.486       .  S
C3614      H4864   1.086       .  S
H3616      C4862   1.086       .  S
C3617      C3618   1.357       .  D
C3617      H3619   1.086   1_556  S
C3618      H3620   1.086       .  S
C3621      C3622   1.341       .  D
C3621      H3623   1.087       .  S
C3622      H3624   1.087       .  S
C3625      C3626   1.370       .  D
C3625      H3627   1.086       .  S
C3626      H3628   1.085       .  S
C3629      C3630   1.365       .  D
C3629      H3631   1.083       .  S
C3630      H3632   1.085       .  S
C3633      C3634   1.371       .  D
C3633      H3635   1.086   1_556  S
C3634      H3636   1.086       .  S
C3637      C3638   1.343       .  D
C3637      H3639   1.086       .  S
C3638      H3640   1.087   1_554  S
C3641      C3642   1.339       .  D
C3641      H3643   1.089       .  S
C3642      C4060   1.477   1_545  S
C3642      H3644   1.086       .  S
C3645      C3646   1.340       .  D
C3645      H3647   1.087       .  S
C3646      H3648   1.087   1_554  S
C3649      C3650   1.380       .  D
C3649      H3651   1.086       .  S
C3650      H3652   1.086       .  S
C3653      C3654   1.358       .  D
C3653      H3655   1.087       .  S
C3654      H3656   1.086       .  S
C3657      C3658   1.377       .  D
C3657      H3659   1.086       .  S
C3658      H3660   1.085       .  S
C3661      C3662   1.370       .  D
C3661      H3663   1.085       .  S
C3662      H3664   1.089       .  S
C3665      C3666   1.379       .  D
C3665      H3667   1.087       .  S
C3666      H3668   1.086       .  S
C3669      C3670   1.360       .  D
C3669      H3671   1.089       .  S
C3670      H3672   1.085   1_545  S
C3673      C3674   1.353       .  D
C3673      H3675   1.086       .  S
C3674      H3676   1.087       .  S
C3677      C3678   1.342       .  D
C3677      H3679   1.087       .  S
C3678      H3680   1.087       .  S
C3681      C3682   1.364       .  D
C3681      H3683   1.079       .  S
C3682      H3684   1.085       .  S
C3685      C3686   1.371       .  D
C3685      H3687   1.085       .  S
C3686      H3688   1.088       .  S
C3689      C3690   1.368       .  D
C3689      H3691   1.086       .  S
C3690      H3692   1.085       .  S
C3693      C4942   1.385       .  D
C3693      H3695   1.086       .  S
C3694      C4941   1.384       .  D
C3694      H3696   1.086   1_565  S
C3697      H3699   1.087       .  S
C3698      H3700   1.086       .  S
C3701      C4950   1.341       .  D
C3701      H4951   1.087   1_545  S
C3702      C4949   1.344       .  D
C3702      H4952   1.087       .  S
H3703      C4949   1.087       .  S
H3704      C4950   1.087       .  S
C3705      C3706   1.374       .  D
C3705      H3707   1.085       .  S
C3706      H3708   1.088       .  S
C3709      C3710   1.374       .  D
C3709      H3711   1.086       .  S
C3710      H3712   1.086       .  S
C3713      C3714   1.354       .  D
C3713      H3715   1.089       .  S
C3714      H3716   1.085       .  S
C3717      C3718   1.373       .  D
C3717      H3719   1.086       .  S
C3718      H3720   1.086       .  S
C3721      H3723   1.086       .  S
C3722      H3724   1.086       .  S
C3725      C3726   1.357       .  D
C3725      H3727   1.087       .  S
C3726      H3728   1.087       .  S
C3729      C3730   1.337       .  D
C3729      H3731   1.087       .  S
C3730      H3732   1.087       .  S
C3733      C3734   1.358       .  D
C3733      H3735   1.086       .  S
C3734      H3736   1.086       .  S
C3737      C3738   1.369       .  D
C3737      H3739   1.085       .  S
C3738      H3740   1.089       .  S
C3741      C3742   1.379       .  D
C3741      H3743   1.086       .  S
C3742      H3744   1.086       .  S
O3745     Zr3757   2.567       .  S
O3745      C3747   1.311       .  A
O3746     Zr3783   2.343       .  S
O3746      C3747   1.274       .  A
C3747      C4985   1.506       .  S
O3748     Zr3760   2.422       .  S
O3748      C3750   1.281       .  A
O3749     Zr3784   2.448       .  S
O3749      C3750   1.289       .  A
C3750      C4969   1.484   1_655  S
O3751     Zr3760   2.328       .  S
O3751      C3753   1.247       .  A
O3752     Zr3783   2.527       .  S
O3752      C3753   1.271       .  A
C3753      C4990   1.486       .  S
O3754     Zr3757   2.452       .  S
O3754      C3756   1.293       .  A
O3755     Zr3784   2.388       .  S
O3755      C3756   1.281       .  A
C3756      C4977   1.455       .  S
Zr3757     O3758   2.434       .  S
Zr3757     O3759   2.436       .  S
Zr3757     O3763   2.315       .  S
Zr3757     O3764   2.439       .  S
Zr3757     O3787   2.378       .  S
Zr3757     O3789   2.368       .  S
O3758      H3801   0.990       .  S
O3759      H3800   0.990       .  S
O3759      H3804   0.990       .  S
Zr3760     O3761   2.435       .  S
Zr3760     O3762   2.436       .  S
Zr3760     O3764   2.361       .  S
Zr3760     O3763   2.375       .  S
Zr3760     O3788   2.407       .  S
Zr3760     O3790   2.345       .  S
O3761      H3802   0.990       .  S
O3761      H3805   0.990       .  S
O3762      H3795   0.990       .  S
O3763     Zr3783   2.391       .  S
O3764     Zr3784   2.401       .  S
O3764      H3791   0.966       .  S
O3765     Zr3777   2.455       .  S
O3765      C3767   1.291       .  A
O3766     Zr3784   2.431       .  S
O3766      C3767   1.286       .  A
C3767      C4961   1.481       .  S
O3768     Zr3780   2.390       .  S
O3768      C3770   1.277       .  A
O3769     Zr3783   2.445       .  S
O3769      C3770   1.290       .  A
C3770      C4973   1.472       .  S
O3771     Zr3780   2.336       .  S
O3771      C3773   1.268       .  A
O3772     Zr3784   2.470       .  S
O3772      C3773   1.296       .  A
C3773      C4965   1.453       .  S
O3774     Zr3777   2.398       .  S
O3774      C3776   1.280       .  A
O3775     Zr3783   2.472       .  S
O3775      C3776   1.295       .  A
C3776      C4981   1.479       .  S
Zr3777     O3778   2.437       .  S
Zr3777     O3779   2.436       .  S
Zr3777     O3785   2.353       .  S
Zr3777     O3786   2.383       .  S
Zr3777     O3789   2.374       .  S
Zr3777     O3787   2.341       .  S
O3778      H3798   0.990       .  S
O3778      H3803   0.990       .  S
O3779      H3799   0.990       .  S
Zr3780     O3781   2.433       .  S
Zr3780     O3782   2.436       .  S
Zr3780     O3786   2.353       .  S
Zr3780     O3785   2.389       .  S
Zr3780     O3790   2.376       .  S
Zr3780     O3788   2.353       .  S
O3781      H3797   0.990       .  S
O3782      H3796   0.990       .  S
O3782      H3806   0.990       .  S
Zr3783     O3786   2.370       .  S
Zr3783     O3788   2.425       .  S
Zr3783     O3789   2.402       .  S
Zr3784     O3785   2.381       .  S
Zr3784     O3787   2.399       .  S
Zr3784     O3790   2.375       .  S
O3785      H3793   0.966       .  S
O3788      H3792   0.966       .  S
O3789      H3794   0.966       .  S
O3807      C3809   1.290       .  A
O3808     Zr3845   2.386   1_545  S
C3809      C4978   1.461       .  S
O3810     Zr3822   2.510       .  S
O3810      C3812   1.298       .  A
O3811     Zr3846   2.438       .  S
O3811      C3812   1.290       .  A
C3812      C4937   1.510       .  S
O3813     Zr3822   2.418       .  S
O3813      C3815   1.286       .  A
O3814     Zr3845   2.407       .  S
O3814      C3815   1.283       .  A
C3815      C4950   1.456   1_565  S
O3816     Zr3819   2.383       .  S
O3816      C3818   1.275       .  A
O3817     Zr3846   2.547       .  S
O3817      C3818   1.313       .  A
C3818      C4941   1.501       .  S
Zr3819     O3821   2.439   1_565  S
Zr3819     O3825   2.348       .  S
Zr3819     O3826   2.413       .  S
Zr3819     O3849   2.377       .  S
Zr3819     O3851   2.367       .  S
O3820      H3863   0.990       .  S
O3821      H3862   0.990       .  S
Zr3822     O3823   2.436       .  S
Zr3822     O3824   2.434       .  S
Zr3822     O3826   2.370       .  S
Zr3822     O3825   2.390       .  S
Zr3822     O3850   2.395       .  S
Zr3822     O3852   2.342       .  S
O3823      H3864   0.990       .  S
O3823      H3867   0.990       .  S
O3824      H3857   0.990       .  S
O3825     Zr3845   2.380       .  S
O3826     Zr3846   2.381       .  S
O3826      H3853   0.967       .  S
O3827     Zr3839   2.400       .  S
O3827      C3829   1.278       .  A
O3828     Zr3846   2.402       .  S
O3828      C3829   1.281       .  A
C3829      C4945   1.457       .  S
O3830     Zr3842   2.585       .  S
O3830      C3832   1.315       .  A
O3831     Zr3845   2.337       .  S
O3831      C3832   1.273       .  A
C3832      C4953   1.517       .  S
O3833     Zr3842   2.407       .  S
O3833      C3835   1.284       .  A
O3834     Zr3846   2.464       .  S
O3834      C3835   1.296       .  A
C3835      C4974   1.471       .  S
O3836     Zr3839   2.372       .  S
O3836      C3838   1.272       .  A
O3837     Zr3845   2.509       .  S
O3837      C3838   1.296       .  A
C3838      C4957   1.468       .  S
Zr3839     O3840   2.441       .  S
Zr3839     O3841   2.435       .  S
Zr3839     O3847   2.358       .  S
Zr3839     O3848   2.366       .  S
Zr3839     O3851   2.366       .  S
Zr3839     O3849   2.336       .  S
O3840      H3860   0.990       .  S
O3840      H3865   0.990       .  S
O3841      H3861   0.990       .  S
Zr3842     O3843   2.434       .  S
Zr3842     O3844   2.435       .  S
Zr3842     O3848   2.306       .  S
Zr3842     O3847   2.432       .  S
Zr3842     O3852   2.403       .  S
Zr3842     O3850   2.333       .  S
O3843      H3859   0.990       .  S
O3844      H3858   0.990       .  S
O3844      H3868   0.990       .  S
Zr3845     O3848   2.323       .  S
Zr3845     O3850   2.391       .  S
Zr3845     O3851   2.374       .  S
Zr3846     O3847   2.410       .  S
Zr3846     O3849   2.377       .  S
Zr3846     O3852   2.401       .  S
O3847      H3855   0.965       .  S
O3850      H3854   0.966       .  S
O3851      H3856   0.966       .  S
O3869     Zr3881   2.409       .  S
O3869      C3871   1.283       .  A
O3870     Zr3907   2.389       .  S
O3870      C3871   1.279       .  A
C3871      C4925   1.452       .  S
O3872     Zr3884   2.454       .  S
O3872      C3874   1.291       .  A
O3873     Zr3908   2.440       .  S
O3873      C3874   1.287       .  A
C3874      C4917   1.485       .  S
O3875     Zr3884   2.426       .  S
O3875      C3877   1.286       .  A
O3876     Zr3907   2.472       .  S
O3876      C3877   1.296       .  A
C3877      C4970   1.490       .  S
O3878     Zr3881   2.358       .  S
O3878      C3880   1.271       .  A
O3879     Zr3908   2.530       .  S
O3879      C3880   1.309       .  A
C3880      C4913   1.486       .  S
Zr3881     O3882   2.434       .  S
Zr3881     O3883   2.440       .  S
Zr3881     O3887   2.345       .  S
Zr3881     O3888   2.394       .  S
Zr3881     O3911   2.364       .  S
Zr3881     O3913   2.351       .  S
O3882      H3925   0.990       .  S
O3883      H3924   0.990       .  S
O3883      H3928   0.990       .  S
Zr3884     O3885   2.436       .  S
Zr3884     O3886   2.433       .  S
Zr3884     O3888   2.367       .  S
Zr3884     O3887   2.369       .  S
Zr3884     O3912   2.384       .  S
Zr3884     O3914   2.354       .  S
O3885      H3926   0.990       .  S
O3885      H3929   0.990       .  S
O3886      H3919   0.990       .  S
O3887     Zr3907   2.373       .  S
O3888     Zr3908   2.385       .  S
O3888      H3915   0.967       .  S
O3889     Zr3901   2.414       .  S
O3889      C3891   1.282       .  A
O3890     Zr3908   2.401       .  S
O3890      C3891   1.281       .  A
C3891      C4949   1.459       .  S
O3892     Zr3904   2.593       .  S
O3892      C3894   1.318       .  A
O3893     Zr3907   2.321       .  S
O3893      C3894   1.271       .  A
C3894      C4933   1.517       .  S
O3895      C3897   1.291       .  A
O3896     Zr3908   2.452       .  S
C3897      C4922   1.480       .  S
O3898     Zr3901   2.373       .  S
O3898      C3900   1.264       .  A
O3899     Zr3907   2.508       .  S
O3899      C3900   1.293       .  A
C3900      C4929   1.470       .  S
Zr3901     O3902   2.435       .  S
Zr3901     O3903   2.435       .  S
Zr3901     O3909   2.355       .  S
Zr3901     O3910   2.385       .  S
Zr3901     O3913   2.382       .  S
Zr3901     O3911   2.332       .  S
O3902      H3922   0.990       .  S
O3902      H3927   0.990       .  S
O3903      H3923   0.990       .  S
Zr3904     O3906   2.434       .  S
Zr3904     O3910   2.327       .  S
Zr3904     O3909   2.426       .  S
Zr3904     O3914   2.404       .  S
Zr3904     O3912   2.346       .  S
O3905      H3921   0.990       .  S
O3906      H3920   0.990       .  S
Zr3907     O3910   2.365       .  S
Zr3907     O3912   2.381       .  S
Zr3907     O3913   2.385       .  S
Zr3908     O3909   2.407       .  S
Zr3908     O3911   2.368       .  S
Zr3908     O3914   2.403       .  S
O3909      H3917   0.965       .  S
O3912      H3916   0.966       .  S
O3913      H3918   0.966       .  S
O3931     Zr3943   2.362       .  S
O3931      C3933   1.271       .  A
O3932     Zr3969   2.510       .  S
O3932      C3933   1.305       .  A
C3933      C4897   1.478       .  S
O3934     Zr3946   2.369       .  S
O3934      C3936   1.272       .  A
O3935     Zr3970   2.546       .  S
O3935      C3936   1.306       .  A
C3936      C4905   1.479       .  S
O3937     Zr3946   2.403       .  S
O3937      C3939   1.278       .  A
O3938     Zr3969   2.452       .  S
O3938      C3939   1.290       .  A
C3939      C4982   1.480       .  S
O3940     Zr3943   2.429       .  S
O3940      C3942   1.286       .  A
O3941     Zr3970   2.437       .  S
O3941      C3942   1.289       .  A
C3942      C4921   1.483       .  S
Zr3943     O3944   2.435       .  S
Zr3943     O3945   2.435       .  S
Zr3943     O3949   2.383       .  S
Zr3943     O3950   2.367       .  S
Zr3943     O3973   2.342       .  S
Zr3943     O3975   2.402       .  S
O3944      H3987   0.990       .  S
O3945      H3986   0.990       .  S
O3945      H3990   0.990       .  S
Zr3946     O3947   2.433       .  S
Zr3946     O3948   2.436       .  S
Zr3946     O3950   2.381       .  S
Zr3946     O3949   2.350       .  S
Zr3946     O3974   2.355       .  S
Zr3946     O3976   2.359       .  S
O3947      H3988   0.990       .  S
O3947      H3991   0.990       .  S
O3948      H3981   0.990       .  S
O3949     Zr3969   2.369       .  S
O3950     Zr3970   2.374       .  S
O3950      H3977   0.966       .  S
O3951     Zr3963   2.391       .  S
O3951      C3953   1.281       .  A
O3952     Zr3970   2.433       .  S
O3952      C3953   1.288       .  A
C3953      C4946   1.456       .  S
O3954     Zr3966   2.418       .  S
O3954      C3956   1.287       .  A
O3955     Zr3969   2.408       .  S
O3955      C3956   1.285       .  A
C3956      C4926   1.446       .  S
O3957     Zr3966   2.584       .  S
O3957      C3959   1.315       .  A
O3958     Zr3970   2.319       .  S
O3958      C3959   1.272       .  A
C3959      C4909   1.504       .  S
O3960     Zr3963   2.485       .  S
O3960      C3962   1.294       .  A
O3961     Zr3969   2.417       .  S
O3961      C3962   1.285       .  A
C3962      C4901   1.489       .  S
Zr3963     O3964   2.439       .  S
Zr3963     O3965   2.434       .  S
Zr3963     O3971   2.382       .  S
Zr3963     O3972   2.330       .  S
Zr3963     O3975   2.358       .  S
Zr3963     O3973   2.393       .  S
O3964      H3984   0.990       .  S
O3964      H3989   0.990       .  S
O3965      H3985   0.990       .  S
Zr3966     O3967   2.436       .  S
Zr3966     O3968   2.436       .  S
Zr3966     O3972   2.396       .  S
Zr3966     O3971   2.340       .  S
Zr3966     O3976   2.302       .  S
Zr3966     O3974   2.430       .  S
O3967      H3983   0.990       .  S
O3968      H3982   0.990       .  S
O3968      H3992   0.990       .  S
Zr3969     O3972   2.406       .  S
Zr3969     O3974   2.399       .  S
Zr3969     O3975   2.371       .  S
Zr3970     O3971   2.402       .  S
Zr3970     O3973   2.371       .  S
Zr3970     O3976   2.324       .  S
O3971      H3979   0.966       .  S
O3974      H3978   0.966       .  S
O3975      H3980   0.966       .  S
O3993     Zr4005   2.348       .  S
O3993      C3995   1.269       .  A
O3994     Zr4031   2.537       .  S
O3994      C3995   1.306       .  A
C3995      C4914   1.486       .  S
O3996     Zr4008   2.432       .  S
O3996      C3998   1.287   1_554  A
O3997     Zr4032   2.479       .  S
O3997      C3998   1.298       .  A
C3998      C4889   1.483       .  S
O3999     Zr4008   2.530       .  S
O3999      C4001   1.304       .  A
O4000     Zr4031   2.337       .  S
O4000      C4001   1.274       .  A
C4001      C4962   1.483       .  S
O4002     Zr4005   2.353   1_556  S
O4002      C4004   1.268       .  A
O4003     Zr4032   2.491       .  S
O4003      C4004   1.299       .  A
C4004      C4882   1.482       .  S
Zr4005     O4006   2.435       .  S
Zr4005     O4007   2.436       .  S
Zr4005     O4011   2.348       .  S
Zr4005     O4012   2.362       .  S
Zr4005     O4035   2.334   1_554  S
Zr4005     O4037   2.359       .  S
O4006      H4049   0.991       .  S
O4007      H4048   0.990       .  S
O4007      H4052   0.990       .  S
Zr4008     O4009   2.435       .  S
Zr4008     O4010   2.436       .  S
Zr4008     O4012   2.413       .  S
Zr4008     O4011   2.335       .  S
Zr4008     O4036   2.347       .  S
Zr4008     O4038   2.383   1_554  S
O4009      H4050   0.990       .  S
O4009      H4053   0.990       .  S
O4010      H4043   0.990       .  S
O4011     Zr4031   2.343       .  S
O4012     Zr4032   2.400   1_554  S
O4012      H4039   0.965       .  S
O4013     Zr4025   2.392       .  S
O4013      C4015   1.273       .  A
O4014     Zr4032   2.496       .  S
O4014      C4015   1.300       .  A
C4015      C4877   1.481       .  S
O4016     Zr4028   2.416       .  S
O4016      C4018   1.285   1_556  A
O4017     Zr4031   2.433       .  S
O4017      C4018   1.287       .  A
C4018      C4894   1.458       .  S
O4019     Zr4028   2.454       .  S
O4019      C4021   1.291       .  A
O4020     Zr4032   2.487       .  S
O4020      C4021   1.297       .  A
C4021      C4873   1.503       .  S
O4022     Zr4025   2.445       .  S
O4022      C4024   1.290   1_556  A
O4023     Zr4031   2.423       .  S
O4023      C4024   1.285       .  A
C4024      C4885   1.486       .  S
Zr4025     O4026   2.436       .  S
Zr4025     O4027   2.434       .  S
Zr4025     O4033   2.397       .  S
Zr4025     O4034   2.342       .  S
Zr4025     O4037   2.374   1_556  S
Zr4025     O4035   2.380       .  S
O4026      H4046   0.990       .  S
O4026      H4051   0.990       .  S
O4027      H4047   0.990       .  S
Zr4028     O4029   2.436       .  S
Zr4028     O4030   2.436       .  S
Zr4028     O4034   2.377       .  S
Zr4028     O4033   2.359       .  S
Zr4028     O4038   2.361       .  S
Zr4028     O4036   2.372   1_556  S
O4029      H4045   0.990       .  S
O4030      H4044   0.990       .  S
O4030      H4054   0.990       .  S
Zr4031     O4034   2.388   1_554  S
Zr4031     O4036   2.402       .  S
Zr4031     O4037   2.376       .  S
Zr4032     O4033   2.416       .  S
Zr4032     O4035   2.392       .  S
Zr4032     O4038   2.410       .  S
O4033      H4041   0.966       .  S
O4036      H4040   0.966       .  S
O4037      H4042   0.966       .  S
O4055     Zr4067   2.397       .  S
O4055      C4057   1.274       .  A
O4056     Zr4093   2.564       .  S
O4056      C4057   1.308       .  A
C4057      C4938   1.521       .  S
O4058     Zr4070   2.457   1_556  S
O4058      C4060   1.292       .  A
O4059     Zr4094   2.447       .  S
O4059      C4060   1.292       .  A
O4061     Zr4070   2.575       .  S
O4061      C4063   1.315       .  A
O4062     Zr4093   2.292       .  S
O4062      C4063   1.267       .  A
C4063      C4898   1.489       .  S
O4064     Zr4067   2.436   1_556  S
O4064      C4066   1.285       .  A
O4065     Zr4094   2.421       .  S
O4065      C4066   1.283       .  A
C4066      C4869   1.463       .  S
Zr4067     O4068   2.434       .  S
Zr4067     O4069   2.435       .  S
Zr4067     O4073   2.375       .  S
Zr4067     O4074   2.363   1_554  S
Zr4067     O4097   2.353   1_554  S
Zr4067     O4099   2.396       .  S
O4068      H4111   0.990       .  S
O4069      H4110   0.990       .  S
O4069      H4114   0.990       .  S
Zr4070     O4071   2.435       .  S
Zr4070     O4072   2.436       .  S
Zr4070     O4074   2.423   1_554  S
Zr4070     O4073   2.326       .  S
Zr4070     O4098   2.347       .  S
Zr4070     O4100   2.388   1_554  S
O4071      H4112   0.990       .  S
O4071      H4115   0.990       .  S
O4072      H4105   0.990       .  S
O4073     Zr4093   2.358       .  S
O4074     Zr4094   2.403       .  S
O4074      H4101   0.966       .  S
O4075     Zr4087   2.354       .  S
O4075      C4077   1.270       .  A
O4076     Zr4094   2.511       .  S
O4076      C4077   1.303       .  A
C4077      C4857   1.485       .  S
O4078     Zr4090   2.393       .  S
O4078      C4080   1.280       .  A
O4079     Zr4093   2.497       .  S
O4079      C4080   1.301   1_554  A
C4080      C4865   1.485       .  S
O4081     Zr4090   2.477       .  S
O4081      C4083   1.293       .  A
O4082     Zr4094   2.392       .  S
O4082      C4083   1.280       .  A
C4083      C4861   1.475       .  S
O4084     Zr4087   2.419       .  S
O4084      C4086   1.282   1_556  A
O4085     Zr4093   2.434       .  S
O4085      C4086   1.287       .  A
C4086      C4886   1.470       .  S
Zr4087     O4088   2.438       .  S
Zr4087     O4089   2.435       .  S
Zr4087     O4095   2.397       .  S
Zr4087     O4096   2.338       .  S
Zr4087     O4099   2.356   1_556  S
Zr4087     O4097   2.378       .  S
O4088      H4108   0.991       .  S
O4088      H4113   0.990       .  S
O4089      H4109   0.990       .  S
Zr4090     O4091   2.434       .  S
Zr4090     O4092   2.436       .  S
Zr4090     O4096   2.388       .  S
Zr4090     O4095   2.357       .  S
Zr4090     O4100   2.333       .  S
Zr4090     O4098   2.380   1_556  S
O4091      H4107   0.990       .  S
O4092      H4106   0.990       .  S
O4092      H4116   0.991       .  S
Zr4093     O4096   2.371   1_554  S
Zr4093     O4098   2.401       .  S
Zr4093     O4099   2.378       .  S
Zr4094     O4095   2.378       .  S
Zr4094     O4097   2.374       .  S
Zr4094     O4100   2.398       .  S
O4095      H4103   0.966       .  S
O4098      H4102   0.966       .  S
O4099      H4104   0.966       .  S
O4117     Zr4129   2.354       .  S
O4117      C4119   1.270       .  A
O4118     Zr4155   2.584       .  S
C4119      C4942   1.504       .  S
O4120     Zr4132   2.422   1_556  S
O4120      C4122   1.285       .  A
O4121      C4122   1.297       .  A
C4122      C4850   1.473       .  S
O4123     Zr4132   2.543       .  S
O4124     Zr4155   2.337       .  S
O4124      C4125   1.275       .  A
C4125      C4918   1.498       .  S
O4126      C4128   1.283       .  A
O4127      C4128   1.286       .  A
C4128      C4870   1.481       .  S
Zr4129     O4131   2.436       .  S
Zr4129     O4159   2.315   1_554  S
Zr4129     O4161   2.385       .  S
O4130      H4173   0.991       .  S
O4131      H4172   0.991       .  S
O4131      H4176   0.990       .  S
Zr4132     O4133   2.435       .  S
Zr4132     O4134   2.435       .  S
Zr4132     O4136   2.422   1_554  S
Zr4132     O4162   2.394   1_554  S
O4133      H4174   0.990       .  S
O4133      H4177   0.990       .  S
O4134      H4167   0.990       .  S
O4135     Zr4155   2.346       .  S
O4137     Zr4149   2.381       .  S
O4137      C4139   1.268       .  A
O4138      C4139   1.301       .  A
C4139      C4841   1.485       .  S
O4140     Zr4152   2.362       .  S
O4140      C4142   1.271       .  A
O4141     Zr4155   2.513       .  S
O4141      C4142   1.304   1_554  A
C4142      C4881   1.477       .  S
O4143     Zr4152   2.438       .  S
O4143      C4145   1.286       .  A
O4146     Zr4149   2.426       .  S
O4147     Zr4155   2.427       .  S
O4147      C4148   1.286       .  A
C4148      C4853   1.469       .  S
Zr4149     O4151   2.434       .  S
Zr4149     O4161   2.372   1_556  S
Zr4149     O4159   2.376       .  S
O4150      H4170   0.990       .  S
O4151      H4171   0.990       .  S
Zr4152     O4153   2.435       .  S
Zr4152     O4154   2.436       .  S
Zr4152     O4158   2.383       .  S
Zr4152     O4157   2.350       .  S
Zr4152     O4160   2.381   1_556  S
O4153      H4169   0.990       .  S
O4154      H4178   0.990       .  S
Zr4155     O4158   2.384   1_554  S
Zr4155     O4160   2.400       .  S
Zr4156     O4157   2.407       .  S
O4157      H4165   0.967       .  S
O4160      H4164   0.966       .  S
O4161      H4166   0.966       .  S
O4179     Zr4191   2.411       .  S
O4179      C4181   1.278       .  A
O4180      C4181   1.293       .  A
C4181      C4902   1.499       .  S
O4182     Zr4194   2.426   1_455  S
O4182      C4184   1.285   1_554  A
O4183     Zr4218   2.420       .  S
O4185     Zr4194   2.518       .  S
O4185      C4187   1.301       .  A
O4186     Zr4217   2.295       .  S
O4186      C4187   1.262       .  A
C4187      C4966   1.463       .  S
O4188     Zr4191   2.388   1_556  S
O4188      C4190   1.278       .  A
O4189     Zr4218   2.490       .  S
O4189      C4190   1.300       .  A
C4190      C4866   1.487       .  S
Zr4191     O4192   2.436       .  S
Zr4191     O4193   2.434       .  S
Zr4191     O4197   2.357       .  S
Zr4191     O4198   2.366   1_554  S
Zr4191     O4221   2.373   1_554  S
Zr4191     O4223   2.369       .  S
O4192      H4235   0.990       .  S
O4193      H4234   0.990       .  S
O4193      H4238   0.991       .  S
Zr4194     O4195   2.437       .  S
Zr4194     O4196   2.436       .  S
Zr4194     O4222   2.338       .  S
Zr4194     O4224   2.383   1_554  S
O4195      H4239   0.990       .  S
O4196      H4229   0.990       .  S
O4198     Zr4218   2.409       .  S
O4198      H4225   0.966   1_556  S
O4199     Zr4211   2.370       .  S
O4199      C4201   1.274       .  A
O4200     Zr4218   2.508       .  S
O4200      C4201   1.305       .  A
C4201      C4837   1.482       .  S
O4202     Zr4214   2.443       .  S
O4202      C4204   1.289   1_556  A
O4203     Zr4217   2.408       .  S
O4203      C4204   1.283       .  A
C4204      C4893   1.454       .  S
O4205     Zr4214   2.456       .  S
O4205      C4207   1.290       .  A
O4206     Zr4218   2.480       .  S
C4207      C4833   1.504       .  S
O4208     Zr4211   2.430       .  S
O4208      C4210   1.287   1_556  A
O4209     Zr4217   2.412   1_455  S
C4210      C4854   1.477       .  S
Zr4211     O4212   2.436       .  S
Zr4211     O4213   2.435       .  S
Zr4211     O4219   2.395       .  S
Zr4211     O4223   2.355   1_556  S
Zr4211     O4221   2.378       .  S
O4212      H4232   0.990       .  S
O4212      H4237   0.990       .  S
O4213      H4233   0.990       .  S
Zr4214     O4215   2.434       .  S
Zr4214     O4216   2.437       .  S
Zr4214     O4220   2.379       .  S
Zr4214     O4224   2.365       .  S
Zr4214     O4222   2.352   1_556  S
O4215      H4231   0.990       .  S
O4216      H4230   0.990       .  S
O4216      H4240   0.991       .  S
Zr4217     O4220   2.369   1_554  S
Zr4217     O4222   2.400       .  S
Zr4218     O4219   2.395       .  S
Zr4218     O4221   2.386       .  S
O4219      H4227   0.966       .  S
O4222      H4226   0.965       .  S
O4223      H4228   0.966       .  S
O4241     Zr4253   2.546       .  S
O4241      C4243   1.307       .  A
O4242     Zr4279   2.392       .  S
O4242      C4243   1.284       .  A
C4243      C4874   1.516       .  S
O4244     Zr4256   2.454       .  S
O4244      C4246   1.288       .  A
O4245     Zr4280   2.394       .  S
O4245      C4246   1.278       .  A
C4246      C4817   1.475   1_655  S
O4247     Zr4256   2.391       .  S
O4247      C4249   1.274       .  A
O4248     Zr4279   2.523       .  S
O4248      C4249   1.301       .  A
C4249      C4842   1.482       .  S
O4250     Zr4253   2.391       .  S
O4250      C4252   1.278       .  A
O4251     Zr4280   2.408       .  S
O4251      C4252   1.287       .  A
Zr4253     O4254   2.434       .  S
Zr4253     O4255   2.437       .  S
Zr4253     O4259   2.312       .  S
Zr4253     O4260   2.435       .  S
Zr4253     O4283   2.389       .  S
Zr4253     O4285   2.336       .  S
O4254      H4297   0.990       .  S
O4255      H4296   0.990       .  S
O4255      H4300   0.990       .  S
Zr4256     O4257   2.440       .  S
Zr4256     O4258   2.436       .  S
Zr4256     O4260   2.364       .  S
Zr4256     O4259   2.376       .  S
Zr4256     O4284   2.388       .  S
Zr4256     O4286   2.320       .  S
O4257      H4298   0.990       .  S
O4257      H4301   0.990       .  S
O4258      H4291   0.990       .  S
O4259     Zr4279   2.338       .  S
O4260     Zr4280   2.403       .  S
O4260      H4287   0.966       .  S
O4261     Zr4273   2.513       .  S
O4261      C4263   1.303       .  A
O4262     Zr4280   2.429       .  S
O4262      C4263   1.284       .  A
C4263      C4809   1.506       .  S
O4264     Zr4276   2.402       .  S
O4264      C4266   1.278       .  A
O4265     Zr4279   2.461       .  S
O4265      C4266   1.295       .  A
C4266      C4826   1.475       .  S
O4267     Zr4276   2.347       .  S
O4267      C4269   1.268       .  A
O4268     Zr4280   2.499       .  S
O4268      C4269   1.301       .  A
C4269      C4814   1.472       .  S
O4270     Zr4273   2.423       .  S
O4270      C4272   1.288       .  A
O4271     Zr4279   2.409       .  S
O4271      C4272   1.284       .  A
C4272      C4829   1.455       .  S
Zr4273     O4274   2.436       .  S
Zr4273     O4275   2.435       .  S
Zr4273     O4281   2.361       .  S
Zr4273     O4282   2.390       .  S
Zr4273     O4285   2.394       .  S
Zr4273     O4283   2.337       .  S
O4274      H4294   0.990       .  S
O4274      H4299   0.990       .  S
O4275      H4295   0.990       .  S
Zr4276     O4277   2.435       .  S
Zr4276     O4278   2.440       .  S
Zr4276     O4282   2.334       .  S
Zr4276     O4281   2.398       .  S
Zr4276     O4286   2.366       .  S
Zr4276     O4284   2.371       .  S
O4277      H4293   0.990       .  S
O4278      H4292   0.990       .  S
O4278      H4302   0.990       .  S
Zr4279     O4282   2.389       .  S
Zr4279     O4284   2.383       .  S
Zr4279     O4285   2.405       .  S
Zr4280     O4281   2.387       .  S
Zr4280     O4283   2.395       .  S
Zr4280     O4286   2.365       .  S
O4281      H4289   0.967       .  S
O4284      H4288   0.966       .  S
O4285      H4290   0.965       .  S
O4303     Zr4315   2.542       .  S
O4303      C4305   1.309       .  A
O4304     Zr4341   2.328       .  S
O4304      C4305   1.271       .  A
C4305      C4858   1.479       .  S
O4306     Zr4318   2.415       .  S
O4306      C4308   1.284       .  A
O4307     Zr4342   2.391       .  S
O4307      C4308   1.280       .  A
O4309     Zr4318   2.390       .  S
O4309      C4311   1.266       .  A
O4310     Zr4341   2.531       .  S
O4310      C4311   1.299       .  A
C4311      C4834   1.495       .  S
O4312     Zr4315   2.427       .  S
O4312      C4314   1.285       .  A
O4313     Zr4342   2.461       .  S
O4313      C4314   1.297       .  A
C4314      C4825   1.483       .  S
Zr4315     O4316   2.433       .  S
Zr4315     O4317   2.436       .  S
Zr4315     O4321   2.339       .  S
Zr4315     O4322   2.412       .  S
Zr4315     O4345   2.396       .  S
Zr4315     O4347   2.336       .  S
O4316      H4359   0.990       .  S
O4317      H4358   0.990       .  S
O4317      H4362   0.990       .  S
Zr4318     O4319   2.436       .  S
Zr4318     O4320   2.434   1_655  S
Zr4318     O4322   2.362       .  S
Zr4318     O4321   2.378       .  S
Zr4318     O4346   2.384       .  S
Zr4318     O4348   2.339       .  S
O4319      H4360   0.990       .  S
O4319      H4363   0.990       .  S
O4320      H4353   0.990       .  S
O4321     Zr4341   2.362       .  S
O4322     Zr4342   2.406       .  S
O4322      H4349   0.966       .  S
O4323     Zr4335   2.519       .  S
O4323      C4325   1.305       .  A
O4324     Zr4342   2.429       .  S
O4324      C4325   1.284       .  A
C4325      C4793   1.508       .  S
O4326     Zr4338   2.409       .  S
O4326      C4328   1.278       .  A
O4327     Zr4341   2.389       .  S
O4327      C4328   1.284       .  A
C4328      C4822   1.449       .  S
O4329     Zr4338   2.380       .  S
O4329      C4331   1.264       .  A
O4330     Zr4342   2.513       .  S
O4330      C4331   1.299       .  A
C4331      C4797   1.488       .  S
O4332     Zr4335   2.455       .  S
O4332      C4334   1.292       .  A
O4333     Zr4341   2.455       .  S
O4333      C4334   1.292       .  A
C4334      C4805   1.490       .  S
Zr4335     O4336   2.436       .  S
Zr4335     O4337   2.433       .  S
Zr4335     O4343   2.357       .  S
Zr4335     O4344   2.390       .  S
Zr4335     O4347   2.387       .  S
Zr4335     O4345   2.352       .  S
O4336      H4356   0.990       .  S
O4336      H4361   0.990       .  S
O4337      H4357   0.990       .  S
Zr4338     O4339   2.435       .  S
Zr4338     O4340   2.438       .  S
Zr4338     O4344   2.357       .  S
Zr4338     O4343   2.405       .  S
Zr4338     O4348   2.369       .  S
Zr4338     O4346   2.362       .  S
O4339      H4355   0.990       .  S
O4340      H4354   0.990       .  S
O4340      H4364   0.990       .  S
Zr4341     O4344   2.385       .  S
Zr4341     O4346   2.375       .  S
Zr4341     O4347   2.392       .  S
Zr4342     O4343   2.402       .  S
Zr4342     O4345   2.395       .  S
Zr4342     O4348   2.383       .  S
O4343      H4351   0.966       .  S
O4346      H4350   0.966       .  S
O4347      H4352   0.965       .  S
O4365     Zr4377   2.562       .  S
O4365      C4367   1.312       .  A
O4366     Zr4403   2.306       .  S
O4366      C4367   1.266       .  A
C4367      C4838   1.486       .  S
O4368     Zr4380   2.425       .  S
O4368      C4370   1.284       .  A
O4369     Zr4404   2.376       .  S
O4369      C4370   1.275       .  A
C4370      C4830   1.455       .  S
O4371     Zr4380   2.390       .  S
O4371      C4373   1.274       .  A
O4372     Zr4403   2.521       .  S
O4372      C4373   1.299       .  A
C4373      C4878   1.478       .  S
O4374     Zr4377   2.384       .  S
O4374      C4376   1.277       .  A
O4375     Zr4404   2.451       .  S
O4375      C4376   1.296       .  A
C4376      C4789   1.459       .  S
Zr4377     O4378   2.433       .  S
Zr4377     O4379   2.436       .  S
Zr4377     O4383   2.302       .  S
Zr4377     O4384   2.438       .  S
Zr4377     O4407   2.397       .  S
Zr4377     O4409   2.323       .  S
O4378      H4421   0.990       .  S
O4379      H4420   0.990       .  S
O4379      H4424   0.990       .  S
Zr4380     O4381   2.439       .  S
Zr4380     O4382   2.437       .  S
Zr4380     O4384   2.365       .  S
Zr4380     O4383   2.372       .  S
Zr4380     O4408   2.382       .  S
Zr4380     O4410   2.326       .  S
O4381      H4422   0.990       .  S
O4381      H4425   0.990       .  S
O4382      H4415   0.990       .  S
O4383     Zr4403   2.324       .  S
O4384     Zr4404   2.403       .  S
O4384      H4411   0.966       .  S
O4385     Zr4397   2.532       .  S
O4385      C4387   1.307       .  A
O4386     Zr4404   2.432       .  S
O4386      C4387   1.284       .  A
C4387      C4782   1.517       .  S
O4388     Zr4400   2.447       .  S
O4388      C4390   1.289       .  A
O4389     Zr4403   2.369       .  S
O4389      C4390   1.274       .  A
C4390      C4785   1.459       .  S
O4391     Zr4400   2.343       .  S
O4391      C4393   1.268       .  A
O4392     Zr4404   2.525       .  S
O4392      C4393   1.308       .  A
C4393      C4777   1.477       .  S
O4394     Zr4397   2.417       .  S
O4394      C4396   1.287       .  A
O4395     Zr4403   2.416       .  S
O4395      C4396   1.285       .  A
C4396      C4801   1.456       .  S
Zr4397     O4398   2.436       .  S
Zr4397     O4399   2.434       .  S
Zr4397     O4405   2.353       .  S
Zr4397     O4406   2.395       .  S
Zr4397     O4409   2.399       .  S
Zr4397     O4407   2.328       .  S
O4398      H4418   0.990       .  S
O4398      H4423   0.990       .  S
O4399      H4419   0.990       .  S
Zr4400     O4401   2.434       .  S
Zr4400     O4402   2.439       .  S
Zr4400     O4406   2.323       .  S
Zr4400     O4405   2.418       .  S
Zr4400     O4410   2.378       .  S
Zr4400     O4408   2.358       .  S
O4401      H4417   0.990       .  S
O4402      H4416   0.990       .  S
O4402      H4426   0.990       .  S
Zr4403     O4406   2.379       .  S
Zr4403     O4408   2.364       .  S
Zr4403     O4409   2.394       .  S
Zr4404     O4405   2.389       .  S
Zr4404     O4407   2.390       .  S
Zr4404     O4410   2.372       .  S
O4405      H4413   0.967       .  S
O4408      H4412   0.966       .  S
O4409      H4414   0.966       .  S
O4427     Zr4439   2.529       .  S
O4427      C4429   1.304       .  A
O4428      C4429   1.281       .  A
C4429      C4845   1.505       .  S
O4430     Zr4442   2.455       .  S
O4430      C4432   1.290       .  A
O4431     Zr4466   2.432       .  S
O4431      C4432   1.287       .  A
C4432      C4806   1.487       .  S
O4433     Zr4442   2.418       .  S
O4434     Zr4465   2.459       .  S
O4434      C4435   1.284       .  A
O4436     Zr4439   2.453       .  S
O4436      C4438   1.293       .  A
O4437     Zr4466   2.380       .  S
O4437      C4438   1.279       .  A
C4438      C4786   1.454       .  S
Zr4439     O4440   2.434       .  S
Zr4439     O4441   2.436       .  S
Zr4439     O4445   2.346       .  S
Zr4439     O4446   2.408       .  S
Zr4439     O4469   2.376       .  S
Zr4439     O4471   2.363       .  S
O4440      H4483   0.990       .  S
O4441      H4482   0.990       .  S
O4441      H4486   0.990       .  S
Zr4442     O4443   2.436       .  S
Zr4442     O4444   2.434       .  S
Zr4442     O4446   2.362       .  S
Zr4442     O4445   2.378       .  S
Zr4442     O4472   2.357       .  S
O4443      H4484   0.990       .  S
O4443      H4487   0.990       .  S
O4446     Zr4466   2.402       .  S
O4446      H4473   0.966       .  S
O4447     Zr4459   2.502       .  S
O4447      C4449   1.301       .  A
O4448     Zr4466   2.457       .  S
O4448      C4449   1.290       .  A
C4449      C4773   1.510       .  S
O4450     Zr4462   2.376       .  S
O4450      C4452   1.273       .  A
O4451     Zr4465   2.436       .  S
O4451      C4452   1.291       .  A
C4452      C4790   1.453       .  S
O4453     Zr4462   2.344       .  S
O4454     Zr4466   2.485       .  S
O4454      C4455   1.298       .  A
O4456      C4458   1.293       .  A
O4457     Zr4465   2.411       .  S
O4457      C4458   1.284       .  A
C4458      C4818   1.475       .  S
Zr4459     O4461   2.434       .  S
Zr4459     O4467   2.382       .  S
Zr4459     O4471   2.381       .  S
Zr4459     O4469   2.352       .  S
O4460      H4480   0.990       .  S
O4460      H4485   0.990       .  S
O4461      H4481   0.990       .  S
Zr4462     O4463   2.435       .  S
Zr4462     O4464   2.440       .  S
Zr4462     O4468   2.350       .  S
Zr4462     O4470   2.354       .  S
O4463      H4479   0.990       .  S
O4464      H4478   0.990       .  S
O4464      H4488   0.990       .  S
Zr4465     O4468   2.375       .  S
Zr4465     O4470   2.382       .  S
Zr4466     O4467   2.389       .  S
Zr4466     O4469   2.397       .  S
Zr4466     O4472   2.367       .  S
O4470      H4474   0.966       .  S
O4471      H4476   0.966       .  S
O4489     Zr4501   2.376       .  S
O4489      C4491   1.267       .  A
O4490     Zr4527   2.508       .  S
C4491      C4930   1.493       .  S
O4492     Zr4504   2.408       .  S
O4492      C4494   1.284       .  A
O4493     Zr4528   2.415       .  S
O4493      C4494   1.284       .  A
C4494      C4765   1.457       .  S
O4495      C4497   1.295       .  A
O4496     Zr4527   2.467       .  S
O4496      C4497   1.290       .  A
C4497      C4954   1.507       .  S
O4498     Zr4501   2.436       .  S
O4498      C4500   1.285       .  A
O4499     Zr4528   2.377       .  S
O4499      C4500   1.277       .  A
C4500      C4761   1.460       .  S
Zr4501     O4502   2.435       .  S
Zr4501     O4503   2.443       .  S
Zr4501     O4507   2.408       .  S
Zr4501     O4508   2.351       .  S
Zr4501     O4531   2.347       .  S
Zr4501     O4533   2.384       .  S
O4502      H4545   0.990       .  S
O4503      H4544   0.989       .  S
O4503      H4548   0.990       .  S
Zr4504     O4505   2.435       .  S
Zr4504     O4508   2.395       .  S
Zr4504     O4507   2.355       .  S
O4505      H4546   0.990       .  S
O4505      H4549   0.990       .  S
O4506      H4539   0.990       .  S
O4508     Zr4528   2.379       .  S
O4508      H4535   0.966       .  S
O4509      C4511   1.274       .  A
O4510     Zr4528   2.448       .  S
O4510      C4511   1.285       .  A
C4511      C4770   1.453       .  S
O4512     Zr4524   2.416       .  S
O4512      C4514   1.283       .  A
O4513     Zr4527   2.427       .  S
O4513      C4514   1.291       .  A
C4514      C4757   1.461       .  S
O4515     Zr4524   2.597       .  S
O4515      C4517   1.318   1_565  A
O4516     Zr4528   2.322       .  S
O4518     Zr4521   2.402       .  S
O4518      C4520   1.280       .  A
O4519     Zr4527   2.411       .  S
O4519      C4520   1.283       .  A
C4520      C4753   1.460       .  S
Zr4521     O4522   2.435       .  S
Zr4521     O4529   2.374       .  S
Zr4521     O4530   2.349       .  S
O4522      H4542   0.989       .  S
O4522      H4547   0.989       .  S
O4523      H4543   0.990       .  S
Zr4524     O4525   2.435       .  S
Zr4524     O4526   2.434       .  S
Zr4524     O4530   2.415       .  S
Zr4524     O4529   2.315       .  S
Zr4524     O4534   2.329   1_565  S
Zr4524     O4532   2.418       .  S
O4525      H4541   0.990       .  S
O4526      H4540   0.990       .  S
O4526      H4550   0.990       .  S
Zr4527     O4530   2.405       .  S
Zr4527     O4532   2.414       .  S
Zr4528     O4531   2.359       .  S
O4529      H4537   0.964       .  S
O4532      H4536   0.966       .  S
O4533      H4538   0.965       .  S
O4551     Zr4563   2.336       .  S
O4551      C4553   1.268       .  A
O4552     Zr4589   2.541       .  S
O4552      C4553   1.310       .  A
C4553      C4906   1.486       .  S
O4554     Zr4566   2.390       .  S
O4554      C4556   1.281       .  A
O4555     Zr4590   2.427       .  S
O4555      C4556   1.287       .  A
C4556      C4750   1.454       .  S
O4557     Zr4566   2.465       .  S
O4557      C4559   1.293       .  A
O4558     Zr4589   2.459       .  S
O4558      C4559   1.289       .  A
C4559      C4986   1.496       .  S
O4560     Zr4563   2.393       .  S
O4560      C4562   1.276       .  A
O4561     Zr4590   2.417       .  S
O4561      C4562   1.286       .  A
C4562      C4758   1.456       .  S
Zr4563     O4564   2.434       .  S
Zr4563     O4565   2.437       .  S
Zr4563     O4569   2.389       .  S
Zr4563     O4570   2.335       .  S
Zr4563     O4593   2.358       .  S
Zr4563     O4595   2.368       .  S
O4564      H4607   0.990       .  S
O4565      H4606   0.990       .  S
O4565      H4610   0.991       .  S
Zr4566     O4567   2.434       .  S
Zr4566     O4568   2.435       .  S
Zr4566     O4570   2.384       .  S
Zr4566     O4569   2.365       .  S
Zr4566     O4594   2.331       .  S
Zr4566     O4596   2.389       .  S
O4567      H4608   0.990       .  S
O4567      H4611   0.990       .  S
O4568      H4601   0.990       .  S
O4569     Zr4589   2.374       .  S
O4570     Zr4590   2.383       .  S
O4570      H4597   0.966       .  S
O4571     Zr4583   2.376       .  S
O4571      C4573   1.271       .  A
O4572     Zr4590   2.490       .  S
O4572      C4573   1.295       .  A
C4573      C4778   1.470       .  S
O4574     Zr4586   2.454       .  S
O4574      C4576   1.292       .  A
O4575     Zr4589   2.397       .  S
O4575      C4576   1.285       .  A
C4576      C4762   1.463       .  S
O4577     Zr4586   2.607       .  S
O4577      C4579   1.321       .  A
O4578     Zr4590   2.316       .  S
O4578      C4579   1.269       .  A
C4579      C4794   1.517       .  S
O4580     Zr4583   2.382       .  S
O4580      C4582   1.277       .  A
O4581     Zr4589   2.404       .  S
O4581      C4582   1.281       .  A
C4582      C4745   1.448       .  S
Zr4583     O4584   2.435       .  S
Zr4583     O4585   2.433       .  S
Zr4583     O4591   2.363       .  S
Zr4583     O4592   2.340       .  S
Zr4583     O4595   2.332       .  S
Zr4583     O4593   2.378       .  S
O4584      H4604   0.989       .  S
O4584      H4609   0.990       .  S
O4585      H4605   0.990       .  S
Zr4586     O4587   2.436       .  S
Zr4586     O4588   2.435       .  S
Zr4586     O4592   2.414       .  S
Zr4586     O4591   2.316       .  S
Zr4586     O4596   2.336       .  S
Zr4586     O4594   2.405       .  S
O4587      H4603   0.990       .  S
O4588      H4602   0.990       .  S
O4588      H4612   0.990       .  S
Zr4589     O4592   2.409       .  S
Zr4589     O4594   2.418       .  S
Zr4589     O4595   2.370       .  S
Zr4590     O4591   2.392       .  S
Zr4590     O4593   2.357       .  S
Zr4590     O4596   2.393       .  S
O4591      H4599   0.964       .  S
O4594      H4598   0.965       .  S
O4595      H4600   0.964       .  S
O4613     Zr4625   2.342   1_655  S
O4613      C4615   1.270       .  A
O4614      C4615   1.313       .  A
C4615      C4989   1.487       .  S
O4616     Zr4628   2.375       .  S
O4616      C4618   1.278       .  A
O4617     Zr4652   2.426       .  S
O4617      C4618   1.286       .  A
C4618      C4746   1.450       .  S
O4619     Zr4628   2.470       .  S
O4619      C4621   1.293       .  A
O4620     Zr4651   2.467       .  S
O4620      C4621   1.289       .  A
C4621      C4934   1.505       .  S
O4622      C4624   1.294       .  A
O4623     Zr4652   2.338       .  S
O4623      C4624   1.265       .  A
C4624      C4737   1.458       .  S
Zr4625     O4627   2.438   1_455  S
Zr4625     O4655   2.350   1_455  S
Zr4625     O4657   2.391   1_455  S
O4626      H4669   0.990       .  S
O4627      H4668   0.990       .  S
O4627      H4672   0.990       .  S
Zr4628     O4629   2.435       .  S
Zr4628     O4630   2.434       .  S
Zr4628     O4632   2.392       .  S
Zr4628     O4631   2.354       .  S
Zr4628     O4656   2.334       .  S
Zr4628     O4658   2.396       .  S
O4629      H4670   0.990       .  S
O4629      H4673   0.990       .  S
O4630      H4663   0.990       .  S
O4631     Zr4651   2.383       .  S
O4632     Zr4652   2.378       .  S
O4632      H4659   0.966       .  S
O4633     Zr4645   2.381       .  S
O4633      C4635   1.272       .  A
O4634     Zr4652   2.455       .  S
C4635      C4813   1.458       .  S
O4636     Zr4648   2.428       .  S
O4636      C4638   1.287       .  A
O4637     Zr4651   2.429       .  S
O4637      C4638   1.290       .  A
C4638      C4741   1.463       .  S
O4639     Zr4648   2.631       .  S
O4639      C4641   1.324       .  A
O4640     Zr4652   2.290       .  S
O4640      C4641   1.260       .  A
C4641      C4781   1.522       .  S
O4642     Zr4645   2.416       .  S
O4642      C4644   1.283       .  A
O4643      C4644   1.279       .  A
C4644      C4766   1.458       .  S
Zr4645     O4646   2.436       .  S
Zr4645     O4647   2.436       .  S
Zr4645     O4654   2.350   1_655  S
Zr4645     O4657   2.317       .  S
Zr4645     O4655   2.384       .  S
O4646      H4666   0.990       .  S
O4646      H4671   0.989       .  S
O4647      H4667   0.990       .  S
Zr4648     O4649   2.433       .  S
Zr4648     O4650   2.434       .  S
Zr4648     O4653   2.302       .  S
Zr4648     O4658   2.325       .  S
Zr4648     O4656   2.419       .  S
O4649      H4665   0.990       .  S
O4650      H4664   0.990       .  S
O4650      H4674   0.990       .  S
Zr4651     O4656   2.407       .  S
Zr4652     O4653   2.389       .  S
Zr4652     O4658   2.374       .  S
O4653      H4661   0.965       .  S
O4656      H4660   0.966       .  S
O4657      H4662   0.964       .  S
O4675      C4677   1.269       .  A
O4676      C4677   1.300       .  A
C4677      C4958   1.475       .  S
O4678     Zr4690   2.396       .  S
O4678      C4680   1.281       .  A
O4679     Zr4714   2.433       .  S
O4679      C4680   1.288       .  A
C4680      C4754   1.459       .  S
O4681     Zr4690   2.471       .  S
O4681      C4683   1.293       .  A
O4682     Zr4713   2.461       .  S
O4682      C4683   1.289       .  A
C4683      C4910   1.498       .  S
O4684     Zr4687   2.406       .  S
O4684      C4686   1.279       .  A
O4685     Zr4714   2.412       .  S
O4685      C4686   1.284       .  A
C4686      C4742   1.460       .  S
Zr4687     O4688   2.436       .  S
Zr4687     O4693   2.391       .  S
Zr4687     O4694   2.337       .  S
Zr4687     O4717   2.361       .  S
O4688      H4731   0.989       .  S
O4689      H4730   0.990       .  S
O4689      H4734   0.991       .  S
Zr4690     O4691   2.434       .  S
Zr4690     O4692   2.436       .  S
Zr4690     O4694   2.391       .  S
Zr4690     O4693   2.369       .  S
Zr4690     O4718   2.334       .  S
Zr4690     O4720   2.386       .  S
O4691      H4732   0.990       .  S
O4691      H4735   0.990       .  S
O4692      H4725   0.990       .  S
O4693     Zr4713   2.372       .  S
O4694     Zr4714   2.383       .  S
O4694      H4721   0.966       .  S
O4695     Zr4707   2.385       .  S
O4696     Zr4714   2.505       .  S
O4696      C4697   1.296       .  A
O4698     Zr4710   2.496       .  S
O4698      C4700   1.302       .  A
O4699     Zr4713   2.344       .  S
O4699      C4700   1.272       .  A
C4700      C4738   1.451       .  S
O4701     Zr4710   2.620       .  S
O4701      C4703   1.324       .  A
O4702     Zr4714   2.300       .  S
O4702      C4703   1.266       .  A
C4703      C4774   1.518       .  S
O4704     Zr4707   2.391       .  S
O4704      C4706   1.279       .  A
O4705      C4706   1.282       .  A
C4706      C4749   1.454       .  S
Zr4707     O4708   2.440       .  S
Zr4707     O4709   2.433       .  S
Zr4707     O4719   2.347       .  S
O4708      H4728   0.989       .  S
O4708      H4733   0.990       .  S
O4709      H4729   0.991       .  S
Zr4710     O4711   2.436       .  S
Zr4710     O4712   2.434       .  S
Zr4710     O4716   2.408       .  S
Zr4710     O4715   2.326       .  S
Zr4710     O4720   2.344       .  S
Zr4710     O4718   2.396       .  S
O4711      H4727   0.990       .  S
O4712      H4726   0.990       .  S
O4712      H4736   0.990       .  S
Zr4713     O4716   2.403       .  S
Zr4713     O4718   2.413       .  S
Zr4714     O4715   2.392       .  S
Zr4714     O4717   2.356       .  S
Zr4714     O4720   2.396       .  S
O4715      H4723   0.964       .  S
O4718      H4722   0.965       .  S
O4719      H4724   0.965       .  S
C4737      C4738   1.320       .  D
C4737      H4739   1.088       .  S
C4738      H4740   1.089       .  S
C4741      H4743   1.087       .  S
C4742      H4744   1.087   1_565  S
C4745      C4746   1.347       .  D
C4745      H4747   1.087       .  S
C4746      H4748   1.087       .  S
C4749      C4750   1.347       .  D
C4749      H4751   1.087       .  S
C4750      H4752   1.087       .  S
C4753      C4754   1.348       .  D
C4753      H4755   1.087       .  S
C4754      H4756   1.087       .  S
C4757      C4758   1.333       .  D
C4757      H4759   1.087       .  S
C4758      H4760   1.088       .  S
C4761      C4762   1.346       .  D
C4761      H4763   1.087       .  S
C4762      H4764   1.087       .  S
C4765      C4766   1.342       .  D
C4765      H4767   1.087       .  S
C4766      H4768   1.087       .  S
C4769      C4770   1.358       .  D
C4769      H4771   1.079       .  S
C4770      H4772   1.086       .  S
C4773      C4774   1.382       .  D
C4773      H4775   1.088       .  S
C4774      H4776   1.085       .  S
C4777      C4778   1.368       .  D
C4777      H4779   1.073       .  S
C4778      H4780   1.086       .  S
C4781      C4782   1.388       .  D
C4781      H4783   1.085       .  S
C4782      H4784   1.087       .  S
C4785      C4786   1.332       .  D
C4785      H4787   1.088       .  S
C4786      H4788   1.087       .  S
C4789      C4790   1.325       .  D
C4789      H4791   1.088       .  S
C4790      H4792   1.088       .  S
C4793      C4794   1.381       .  D
C4793      H4795   1.087       .  S
C4794      H4796   1.085       .  S
C4797      C4798   1.368       .  D
C4797      H4799   1.081       .  S
C4801      C4802   1.341       .  D
C4801      H4803   1.087       .  S
C4805      C4806   1.351       .  D
C4805      H4807   1.087       .  S
C4806      H4808   1.087       .  S
C4809      C4810   1.378       .  D
C4809      H4811   1.087       .  S
C4813      C4814   1.363       .  D
C4813      H4815   1.085       .  S
C4814      H4816   1.081       .  S
C4817      H4819   1.087       .  S
C4818      H4820   1.087       .  S
C4821      C4822   1.332       .  D
C4822      H4824   1.087       .  S
C4825      C4826   1.336       .  D
C4825      H4827   1.087       .  S
C4826      H4828   1.088       .  S
C4829      C4830   1.338       .  D
C4829      H4831   1.087       .  S
C4830      H4832   1.087       .  S
C4833      C4834   1.354       .  D
C4833      H4835   1.088       .  S
C4834      H4836   1.086       .  S
C4837      C4838   1.375       .  D
C4837      H4839   1.086       .  S
C4838      H4840   1.086       .  S
C4841      C4842   1.368       .  D
C4841      H4843   1.081       .  S
C4842      H4844   1.083       .  S
C4845      C4846   1.361       .  D
C4845      H4847   1.085       .  S
C4849      C4850   1.338       .  D
C4849      H4851   1.086       .  S
C4850      H4852   1.089   1_556  S
C4853      C4854   1.343       .  D
C4854      H4856   1.086       .  S
C4857      C4858   1.373       .  D
C4857      H4859   1.086       .  S
C4858      H4860   1.086       .  S
C4861      C4862   1.346       .  D
C4861      H4863   1.087       .  S
C4865      C4866   1.366       .  D
C4865      H4867   1.086   1_556  S
C4866      H4868   1.086       .  S
C4869      C4870   1.347       .  D
C4869      H4871   1.086       .  S
C4870      H4872   1.086       .  S
C4873      C4874   1.365       .  D
C4873      H4875   1.086       .  S
C4874      H4876   1.085       .  S
C4877      C4878   1.364       .  D
C4877      H4879   1.083       .  S
C4878      H4880   1.085       .  S
C4881      C4882   1.373       .  D
C4881      H4883   1.086   1_556  S
C4882      H4884   1.086       .  S
C4885      C4886   1.344       .  D
C4885      H4887   1.086       .  S
C4886      H4888   1.088   1_554  S
C4889      C4890   1.345       .  D
C4889      H4891   1.088   1_556  S
C4890      H4892   1.086       .  S
C4893      C4894   1.339       .  D
C4893      H4895   1.087       .  S
C4894      H4896   1.087       .  S
C4897      C4898   1.378       .  D
C4897      H4899   1.086       .  S
C4898      H4900   1.086       .  S
C4901      C4902   1.356       .  D
C4901      H4903   1.087       .  S
C4902      H4904   1.086       .  S
C4905      C4906   1.377       .  D
C4905      H4907   1.086       .  S
C4906      H4908   1.085       .  S
C4909      C4910   1.369       .  D
C4909      H4911   1.085       .  S
C4910      H4912   1.089       .  S
C4913      C4914   1.378       .  D
C4913      H4915   1.087       .  S
C4914      H4916   1.086       .  S
C4917      C4918   1.362       .  D
C4917      H4919   1.089       .  S
C4918      H4920   1.085       .  S
C4921      C4922   1.353       .  D
C4921      H4923   1.086       .  S
C4922      H4924   1.087       .  S
C4925      C4926   1.341       .  D
C4925      H4927   1.087       .  S
C4926      H4928   1.087       .  S
C4929      C4930   1.364       .  D
C4929      H4931   1.079       .  S
C4930      H4932   1.085       .  S
C4933      C4934   1.375       .  D
C4933      H4935   1.085       .  S
C4934      H4936   1.088       .  S
C4937      C4938   1.370       .  D
C4937      H4939   1.086       .  S
C4938      H4940   1.085       .  S
C4941      H4943   1.086       .  S
C4942      H4944   1.086       .  S
C4945      H4947   1.087       .  S
C4946      H4948   1.086       .  S
C4953      C4954   1.374       .  D
C4953      H4955   1.085       .  S
C4954      H4956   1.088       .  S
C4957      C4958   1.368       .  D
C4957      H4959   1.086       .  S
C4958      H4960   1.085       .  S
C4961      C4962   1.355       .  D
C4961      H4963   1.089       .  S
C4962      H4964   1.085       .  S
C4965      C4966   1.368       .  D
C4965      H4967   1.086       .  S
C4966      H4968   1.086       .  S
C4969      H4971   1.086       .  S
C4970      H4972   1.086       .  S
C4973      C4974   1.357       .  D
C4973      H4975   1.086       .  S
C4974      H4976   1.087       .  S
C4977      C4978   1.335       .  D
C4977      H4979   1.088       .  S
C4978      H4980   1.087       .  S
C4981      C4982   1.359       .  D
C4981      H4983   1.086       .  S
C4982      H4984   1.086       .  S
C4985      C4986   1.367       .  D
C4985      H4987   1.085       .  S
C4986      H4988   1.085       .  S
C4989      C4990   1.375       .  D
C4989      H4991   1.084       .  S
C4990      H4992   1.088       .  S
