geometry optimzed in LAMMPS
_audit_creation_date              2020-11-30 
_audit_creation_method            'lammps2cif' 
_symmetry_space_group_name_H-M    'P1' 
_symmetry_Int_Tables_number       1 
_symmetry_cell_setting            triclinic 
loop_ 
_symmetry_equiv_pos_as_xyz 
  x,y,z 
_cell_length_a                    44.90224049 
_cell_length_b                    44.79744707515465 
_cell_length_c                    44.702230268670796 
_cell_angle_alpha                 89.99210678800355 
_cell_angle_beta                  90.02814348871074 
_cell_angle_gamma                 90.15736090960604 
loop_ 
_atom_site_label 
_atom_site_type_symbol 
_atom_site_fract_x 
_atom_site_fract_y 
_atom_site_fract_z 
_atom_site_charge 
N1          N  0.95316333  0.26501443  0.26345717    -0.02500
C2          C  0.94464992  0.23623343  0.26843263     0.00100
C3          C  0.93717345  0.22288841  0.24151108    -0.22800
C4          C  0.94154756  0.24386332  0.21946718    -0.23000
C5          C  0.95152969  0.26949214  0.23340384     0.00000
H6          H  0.93195805  0.19960565  0.23780207     0.13800
H7          H  0.93961281  0.24019490  0.19561461     0.13800
O8          O  0.00034877  0.41260721  0.44579084    -0.85500
O9          O  0.99887150  0.58331252  0.44843508    -0.85700
O10         O  0.95320455  0.49788734  0.40884763    -0.87400
O11         O  0.04907525  0.49926648  0.41152250    -0.86100
O12         O  0.08573455  0.49925948  0.44734296    -0.85700
O13         O  0.91600933  0.49673303  0.44388316    -0.87100
O14         O  0.99989134  0.54767099  0.41182379    -0.85600
O15         O  0.99872335  0.44941044  0.41016030    -0.85100
Zr16       Zr  0.00055384  0.49815406  0.43524689     2.84300
O17         O  0.03062997  0.52746479  0.46632797    -1.07100
O18         O  0.97021006  0.46740577  0.46444243    -1.07800
C19         C  0.99889023  0.42168177  0.41840844     1.07600
C20         C  0.99899177  0.57520093  0.42065901     1.07500
C21         C  0.92547938  0.49714128  0.41638821     1.10500
C22         C  0.07659901  0.49959470  0.41987702     1.08300
H23         H  0.95749506  0.54012775  0.45297146     0.33800
O24         O  0.96968714  0.52750845  0.46531787    -1.28100
H25         H  0.04322650  0.45558779  0.45215537     0.33500
O26         O  0.03102083  0.46776293  0.46493980    -1.29700
O27         O  0.00125897  0.58111045  0.54544879    -0.85500
O28         O  0.99777476  0.41140232  0.54279823    -0.87000
O29         O  0.91460102  0.54583324  0.49610285    -0.85600
O30         O  0.08552222  0.54645742  0.49522959    -0.85600
O31         O  0.08586723  0.44834897  0.49351280    -0.85400
O32         O  0.91598319  0.44661008  0.49164132    -0.85200
O33         O  0.95130488  0.49179918  0.57983051    -0.85500
O34         O  0.04728319  0.49471345  0.58050773    -0.85000
O35         O  0.91481804  0.49243672  0.54366736    -0.86100
O36         O  0.08499180  0.49546121  0.54593968    -0.85200
O37         O  0.95172307  0.58098733  0.49764797    -0.85600
O38         O  0.95319554  0.41152722  0.49040457    -0.85300
O39         O  0.04863900  0.41339703  0.49342250    -0.85000
O40         O  0.04806925  0.58124843  0.49347946    -0.85400
O41         O  0.99951116  0.54502436  0.58169443    -0.85700
O42         O  0.99875161  0.44740538  0.57922401    -0.87000
Zr43       Zr  0.99987828  0.55682847  0.49642384     2.83100
Zr44       Zr  0.00046830  0.43730144  0.49444599     2.83500
Zr45       Zr  0.93888833  0.49660705  0.49432379     2.84100
Zr46       Zr  0.06125850  0.49723137  0.49628756     2.83400
Zr47       Zr  0.99937738  0.49644909  0.55547791     2.84200
O48         O  0.03046490  0.46659948  0.52579385    -1.07600
O49         O  0.96881581  0.52656310  0.52566775    -1.07100
C50         C  0.00097185  0.57267440  0.57314426     1.07600
C51         C  0.99757851  0.41991787  0.57047156     1.10200
C52         C  0.92403683  0.57321266  0.49713908     1.07700
C53         C  0.07574809  0.57355472  0.49319779     1.08100
C54         C  0.07632063  0.42105652  0.49252083     1.07700
C55         C  0.92561261  0.41936357  0.49011208     1.07200
C56         C  0.92394098  0.49033670  0.57113279     1.07600
C57         C  0.07508547  0.49480672  0.57317148     1.07200
H58         H  0.95692507  0.45304981  0.53651725     0.33800
O59         O  0.96969695  0.46674936  0.52420734    -1.28700
H60         H  0.04260387  0.53934065  0.53917799     0.33900
O61         O  0.03042404  0.52698990  0.52649486    -1.30100
N62         N  0.02535975  0.73453255  0.72933661    -0.02500
C63         C  0.02887762  0.73035824  0.75931402     0.00100
C64         C  0.03256473  0.75753797  0.77353978    -0.22800
C65         C  0.03088274  0.77913856  0.75191840    -0.23000
C66         C  0.02648721  0.76451007  0.72512087     0.00000
H67         H  0.03497849  0.76128542  0.79734038     0.13800
H68         H  0.03156558  0.80303060  0.75546333     0.13800
N69         N  0.00991895  0.26295883  0.73116618    -0.02500
C70         C  0.01428286  0.23304918  0.72799980     0.00100
C71         C  0.01648645  0.21942586  0.75564186    -0.22800
C72         C  0.01292540  0.24128494  0.77664204    -0.23000
C73         C  0.00860615  0.26758982  0.76120759     0.00000
H74         H  0.01967585  0.19588178  0.76001060     0.13800
H75         H  0.01338078  0.23834814  0.80066734     0.13800
N76         N  0.98928508  0.73381443  0.25993376    -0.02500
C77         C  0.98043276  0.73010218  0.23115364     0.00100
C78         C  0.97587981  0.75732191  0.21743910    -0.22800
C79         C  0.98177666  0.77869838  0.23851224    -0.23000
C80         C  0.98977081  0.76380310  0.26433256     0.00000
H81         H  0.97040427  0.76123417  0.19419573     0.13800
H82         H  0.98104755  0.80262536  0.23522558     0.13800
O83         O  0.99644161  0.04842683  0.40889668    -0.85500
O84         O  0.00130070  0.04708684  0.57954120    -0.85700
O85         O  0.95056065  0.08353089  0.49522936    -0.87400
O86         O  0.04815108  0.08307103  0.49484435    -0.86100
O87         O  0.08401944  0.04691294  0.49544648    -0.85700
O88         O  0.91455268  0.04715406  0.49404012    -0.87100
O89         O  0.00266211  0.08295903  0.54285520    -0.85600
O90         O  0.99645607  0.08338213  0.44629475    -0.85100
Zr91       Zr  0.99924294  0.05858787  0.49454197     2.84300
O92         O  0.02894890  0.02829778  0.52483537    -1.07100
O93         O  0.96940542  0.02860844  0.46402249    -1.07800
C94         C  0.99517777  0.07574728  0.41845844     1.07600
C95         C  0.00325995  0.07444585  0.57041267     1.07500
C96         C  0.92304008  0.07477585  0.49455433     1.10500
C97         C  0.07567941  0.07451960  0.49558413     1.08300
H98         H  0.95647851  0.04109923  0.53786713     0.33800
O99         O  0.96892233  0.02875556  0.52530516    -1.28100
H100        H  0.04203215  0.04173401  0.45120137     0.33500
O101        O  0.02950340  0.02918508  0.46352919    -1.29700
O102        O  0.99967312  0.94922915  0.57926394    -0.85500
O103        O  0.00343560  0.94954024  0.40945392    -0.87000
O104        O  0.91502686  0.99465335  0.54278140    -0.85600
O105        O  0.08307129  0.99779146  0.54268338    -0.85600
O106        O  0.08294875  0.99657308  0.44612525    -0.85400
O107        O  0.91531969  0.99938357  0.44570504    -0.85200
O108        O  0.94915553  0.91432968  0.49207141    -0.85500
O109        O  0.04740089  0.91399609  0.49249001    -0.85000
O110        O  0.91341580  0.95060556  0.49230499    -0.86100
O111        O  0.08371302  0.94998294  0.49186642    -0.85200
O112        O  0.95012417  0.99432997  0.58000944    -0.85600
O113        O  0.95047639  0.99779335  0.40856780    -0.85300
O114        O  0.04809944  0.99676609  0.40858284    -0.85000
O115        O  0.04812203  0.99757404  0.57995295    -0.85400
O116        O  0.99719534  0.91352185  0.54240798    -0.85700
O117        O  0.00257964  0.91386737  0.44616803    -0.87000
Zr118      Zr  0.99906778  0.99812639  0.55539971     2.83100
Zr119      Zr  0.99924862  0.99893610  0.43301007     2.83500
Zr120      Zr  0.93933438  0.99858188  0.49428679     2.84100
Zr121      Zr  0.05868756  0.99847463  0.49433897     2.83400
Zr122      Zr  0.99849255  0.93840462  0.49412753     2.84200
O123        O  0.02832273  0.96892910  0.46419003    -1.07600
O124        O  0.96886519  0.96832229  0.52469535    -1.07100
C125        C  0.99827007  0.92194873  0.57000100     1.07600
C126        C  0.00484767  0.92212676  0.41866375     1.10200
C127        C  0.92284980  0.99296067  0.57055664     1.07700
C128        C  0.07539665  0.99742864  0.57049475     1.08100
C129        C  0.07521666  0.99570167  0.41836007     1.07700
C130        C  0.92323999  0.99860586  0.41796005     1.07200
C131        C  0.92160584  0.92298936  0.49154135     1.07600
C132        C  0.07501292  0.92243426  0.49120517     1.07200
H133        H  0.95661472  0.95601296  0.45071246     0.33800
O134        O  0.96892209  0.96851815  0.46330587    -1.28700
H135        H  0.04149510  0.95525572  0.53686385     0.33900
O136        O  0.02897674  0.96794970  0.52475468    -1.30100
N137        N  0.23613236  0.23305537  0.49333906    -0.02500
C138        C  0.23196779  0.26301201  0.49098560     0.00100
C139        C  0.25851283  0.27815591  0.49482004    -0.22800
C140        C  0.27980706  0.25703997  0.50033866    -0.23000
C141        C  0.26564430  0.22963377  0.49945008     0.00000
H142        H  0.26183077  0.30209328  0.49439570     0.13800
H143        H  0.30314520  0.26119336  0.50481219     0.13800
N144        N  0.76226651  0.23235497  0.49995376    -0.02500
C145        C  0.76925347  0.26147448  0.50462147     0.00100
C146        C  0.74383973  0.27826611  0.50847933    -0.22800
C147        C  0.72025111  0.25897061  0.50615445    -0.23000
C148        C  0.73201310  0.23101871  0.50060190     0.00000
H149        H  0.74262574  0.30217679  0.51171113     0.13800
H150        H  0.69697986  0.26474128  0.50835088     0.13800
N151        N  0.76500411  0.76066247  0.47065923    -0.02500
C152        C  0.73496418  0.76363578  0.46896435     0.00100
C153        C  0.72142239  0.73608484  0.46595585    -0.22800
C154        C  0.74378975  0.71527111  0.46600025    -0.23000
C155        C  0.77015735  0.73086677  0.46919805     0.00000
H156        H  0.69774307  0.73156812  0.46524012     0.13800
H157        H  0.74106663  0.69126755  0.46534549     0.13800
N158        N  0.23165722  0.76269131  0.46858770    -0.02500
C159        C  0.22832053  0.73367856  0.46022062     0.00100
C160        C  0.25572194  0.72122549  0.45374294    -0.22800
C161        C  0.27652859  0.74330424  0.45758240    -0.23000
C162        C  0.26126246  0.76851493  0.46637384     0.00000
H163        H  0.26035188  0.69819324  0.44826656     0.13800
H164        H  0.30039201  0.74105867  0.45505625     0.13800
N165        N  0.73140579  0.97943014  0.26393900    -0.02500
C166        C  0.76151769  0.97919769  0.26592891     0.00100
C167        C  0.77423011  0.97081518  0.23912155    -0.22800
C168        C  0.75113629  0.96529950  0.21983342    -0.23000
C169        C  0.72524944  0.97038800  0.23569860     0.00000
H170        H  0.79774210  0.96867690  0.23428367     0.13800
H171        H  0.75297231  0.95919965  0.19648043     0.13800
O172        O  0.45081347  0.08077882  0.50417505    -0.85500
O173        O  0.44718310  0.91066349  0.49856224    -0.85700
O174        O  0.41351531  0.99721355  0.45244625    -0.87400
O175        O  0.41443094  0.99534066  0.55018991    -0.86100
O176        O  0.45057346  0.99427818  0.58635407    -0.85700
O177        O  0.44923176  0.99686972  0.41587293    -0.87100
O178        O  0.41250090  0.94829174  0.50135224    -0.85600
O179        O  0.41518957  0.04411637  0.50405520    -0.85100
Zr180      Zr  0.43860802  0.99548326  0.50115622     2.84300
O181        O  0.46808538  0.96388481  0.53038760    -1.07100
O182        O  0.46839455  0.02539889  0.47047246    -1.07800
C183        C  0.42336887  0.07173373  0.50536150     1.07600
C184        C  0.42013614  0.92066998  0.49950483     1.07500
C185        C  0.42187079  0.99759478  0.42472028     1.10500
C186        C  0.42302469  0.99494932  0.57781705     1.08300
H187        H  0.45431834  0.95256271  0.45828462     0.33800
O188        O  0.46740378  0.96426310  0.47082377    -1.28100
H189        H  0.45739722  0.03735253  0.54406513     0.33500
O190        O  0.46935999  0.02502891  0.53106139    -1.29700
O191        O  0.54655435  0.90758822  0.49871037    -0.85500
O192        O  0.54929565  0.07758781  0.49933506    -0.87000
O193        O  0.49336441  0.94639237  0.41511497    -0.85600
O194        O  0.49503669  0.94507675  0.58400755    -0.85600
O195        O  0.50064960  0.04180356  0.58454894    -0.85400
O196        O  0.49772711  0.04166812  0.41559229    -0.85200
O197        O  0.58159375  0.99231755  0.45083188    -0.85500
O198        O  0.58288385  0.99183323  0.54925358    -0.85000
O199        O  0.54549372  0.99260366  0.41472762    -0.86100
O200        O  0.54695083  0.99159100  0.58554081    -0.85200
O201        O  0.49538426  0.90931588  0.45058745    -0.85600
O202        O  0.49657425  0.07906489  0.45071649    -0.85300
O203        O  0.50162939  0.07938548  0.54964304    -0.85000
O204        O  0.49410666  0.90788019  0.54893886    -0.85400
O205        O  0.58194171  0.94460235  0.49849168    -0.85700
O206        O  0.58422877  0.04040262  0.49993851    -0.87000
Zr207      Zr  0.49735395  0.93269286  0.50010377     2.83100
Zr208      Zr  0.49931205  0.05529065  0.50043542     2.83500
Zr209      Zr  0.49759771  0.99404814  0.44059076     2.84100
Zr210      Zr  0.49872899  0.99352767  0.56034310     2.83400
Zr211      Zr  0.55800533  0.99296551  0.50019992     2.84200
O212        O  0.52889335  0.02391710  0.53035844    -1.07600
O213        O  0.52762798  0.96297846  0.46990267    -1.07100
C214        C  0.57399345  0.91690769  0.49783351     1.07600
C215        C  0.57656756  0.06812420  0.49936934     1.10200
C216        C  0.49328485  0.91879224  0.42330864     1.07700
C217        C  0.49330500  0.91737979  0.57627779     1.08100
C218        C  0.50131625  0.06956611  0.57688397     1.07700
C219        C  0.49669029  0.06929660  0.42338843     1.07200
C220        C  0.57301516  0.99221188  0.42316950     1.07600
C221        C  0.57442788  0.99109582  0.57698261     1.07200
H222        H  0.54108864  0.03611303  0.45739573     0.33800
O223        O  0.52853758  0.02407889  0.47018831    -1.28700
H224        H  0.54035016  0.94978539  0.54283395     0.33900
O225        O  0.52811952  0.96247348  0.53041589    -1.30100
N226        N  0.26088165  0.98865495  0.73409532    -0.02500
C227        C  0.26404894  0.98734619  0.76442203     0.00100
C228        C  0.23732075  0.97992579  0.77784835    -0.22800
C229        C  0.21696612  0.97611466  0.75538278    -0.23000
C230        C  0.23185364  0.98140872  0.72891354     0.00000
H231        H  0.23311569  0.97762312  0.80157989     0.13800
H232        H  0.19356777  0.97093789  0.75808688     0.13800
N233        N  0.73536257  0.96349472  0.73228768    -0.02500
C234        C  0.76515717  0.96236387  0.72702445     0.00100
C235        C  0.78022467  0.95515346  0.75292469    -0.22800
C236        C  0.75920643  0.95182367  0.77492328    -0.23000
C237        C  0.73167709  0.95658514  0.76181113     0.00000
H238        H  0.80405227  0.95262902  0.75551441     0.13800
H239        H  0.76381628  0.94736867  0.79822185     0.13800
N240        N  0.26579054  0.98231382  0.26234797    -0.02500
C241        C  0.27024632  0.98501208  0.23246254     0.00100
C242        C  0.24377922  0.98168085  0.21708278    -0.22800
C243        C  0.22203406  0.97733055  0.23817882    -0.23000
C244        C  0.23604334  0.97807587  0.26566422     0.00000
H245        H  0.24060678  0.98296451  0.19311573     0.13800
H246        H  0.19835282  0.97541583  0.23405782     0.13800
O247        O  0.58560655  0.99471895  0.04658129    -0.85500
O248        O  0.41646952  0.00014393  0.04588639    -0.85700
O249        O  0.50725584  0.04483627  0.08151350    -0.87400
O250        O  0.49998581  0.94789353  0.08128900    -0.86100
O251        O  0.49905066  0.91220487  0.04471802    -0.85700
O252        O  0.50937252  0.08183655  0.04625670    -0.87100
O253        O  0.45326803  0.00008135  0.08151763    -0.85600
O254        O  0.54809565  0.99519339  0.08141821    -0.85100
Zr255      Zr  0.50108165  0.99676009  0.05636231     2.84300
O256        O  0.46949764  0.96784800  0.02660671    -1.07100
O257        O  0.53267763  0.02572789  0.02649117    -1.07800
C258        C  0.57566045  0.99491941  0.07386294     1.07600
C259        C  0.42570728  0.00079199  0.07336945     1.07500
C260        C  0.51013060  0.07249331  0.07365386     1.10500
C261        C  0.49961443  0.92034755  0.07253346     1.08300
H262        H  0.46073690  0.04160400  0.04010220     0.33800
O263        O  0.47222220  0.02872895  0.02717916    -1.28100
H264        H  0.54271637  0.95318183  0.03883031     0.33500
O265        O  0.53098412  0.96627122  0.02634479    -1.29700
O266        O  0.41725072  0.00226557  0.94713475    -0.85500
O267        O  0.58613622  0.99166394  0.94635081    -0.87000
O268        O  0.45713321  0.08511553  0.99979534    -0.85600
O269        O  0.45063831  0.91469087  0.99453792    -0.85600
O270        O  0.54648041  0.91156791  0.99537942    -0.85400
O271        O  0.55299936  0.07942020  0.99678344    -0.85200
O272        O  0.50212318  0.04736486  0.91229894    -0.85500
O273        O  0.50017846  0.95073032  0.91066346    -0.85000
O274        O  0.50069023  0.08334590  0.94880731    -0.86100
O275        O  0.50010126  0.91445950  0.94674426    -0.85200
O276        O  0.41982674  0.05016053  0.99804582    -0.85600
O277        O  0.58918650  0.04350336  0.99688950    -0.85300
O278        O  0.58510731  0.94510607  0.99613085    -0.85000
O279        O  0.41502001  0.95155752  0.99368981    -0.85400
O280        O  0.45361491  0.00061144  0.91121237    -0.85700
O281        O  0.54881595  0.99331736  0.91122586    -0.87000
Zr282      Zr  0.44086810  0.99984415  0.99664808     2.83100
Zr283      Zr  0.56280683  0.99537630  0.99627774     2.83500
Zr284      Zr  0.50379288  0.05772039  0.99721033     2.84100
Zr285      Zr  0.49940684  0.93786098  0.99612042     2.83400
Zr286      Zr  0.50148481  0.99860442  0.93654560     2.84200
O287        O  0.53060926  0.96714173  0.96625439    -1.07600
O288        O  0.47225606  0.02925923  0.96685005    -1.07100
C289        C  0.42614313  0.00198606  0.91953620     1.07600
C290        C  0.57631595  0.99066957  0.91904283     1.10200
C291        C  0.42940291  0.07743924  0.99948347     1.07700
C292        C  0.42352659  0.92396188  0.99317329     1.08100
C293        C  0.57447603  0.91815010  0.99580095     1.07700
C294        C  0.58043103  0.07103512  0.99703722     1.07200
C295        C  0.50068977  0.07476482  0.92116436     1.07600
C296        C  0.50031505  0.92318043  0.91914096     1.07200
H297        H  0.54611742  0.03947238  0.95369307     0.33800
O298        O  0.53350633  0.02738078  0.96637099    -1.28700
H299        H  0.45765102  0.95728311  0.95330909     0.33900
O300        O  0.47025272  0.96916097  0.96619749    -1.30100
N301        N  0.48225225  0.22745478  0.23189266    -0.02500
C302        C  0.47313738  0.25620782  0.22821946     0.00100
C303        C  0.46521923  0.26815887  0.25563102    -0.22800
C304        C  0.46903704  0.24608152  0.27660599    -0.23000
C305        C  0.47951854  0.22140735  0.26152925     0.00000
H306        H  0.45839691  0.29083518  0.26017025     0.13800
H307        H  0.46464886  0.24780087  0.30034520     0.13800
N308        N  0.49756253  0.75997240  0.23266524    -0.02500
C309        C  0.50335157  0.73041160  0.22891779     0.00100
C310        C  0.50311013  0.71560376  0.25599674    -0.22800
C311        C  0.49742697  0.73657504  0.27740654    -0.23000
C312        C  0.49433797  0.76355063  0.26276547     0.00000
H313        H  0.50599496  0.69191598  0.25969592     0.13800
H314        H  0.49608825  0.73269749  0.30127263     0.13800
N315        N  0.51360878  0.76056853  0.76370273    -0.02500
C316        C  0.51912640  0.73118548  0.76835614     0.00100
C317        C  0.51790286  0.71556748  0.74174733    -0.22800
C318        C  0.51079265  0.73584834  0.71993603    -0.23000
C319        C  0.50818150  0.76317101  0.73397644     0.00000
H320        H  0.52065803  0.69175797  0.73877214     0.13800
H321        H  0.50733671  0.73113490  0.69644288     0.13800
N322        N  0.49073601  0.23241196  0.76080067    -0.02500
C323        C  0.49059952  0.26244745  0.76450823     0.00100
C324        C  0.48402000  0.27670853  0.73795487    -0.22800
C325        C  0.47957565  0.25475183  0.71706439    -0.23000
C326        C  0.48351027  0.22788413  0.73169491     0.00000
H327        H  0.48296045  0.30054614  0.73417005     0.13800
H328        H  0.47516488  0.25806987  0.69350728     0.13800
O329        O  0.00179977  0.41564494  0.05003552    -0.85500
O330        O  0.00095036  0.58600140  0.04266073    -0.85700
O331        O  0.05029534  0.50391698  0.08110294    -0.87400
O332        O  0.95193168  0.49991290  0.08052242    -0.86100
O333        O  0.91621603  0.49875102  0.04395603    -0.85700
O334        O  0.08656110  0.50491855  0.04506979    -0.87100
O335        O  0.99920812  0.54959174  0.07880865    -0.85600
O336        O  0.00156148  0.45344857  0.08452258    -0.85100
Zr337      Zr  0.00151784  0.50052027  0.05670874     2.84300
O338        O  0.97172104  0.52986003  0.02538160    -1.07100
O339        O  0.03261174  0.46986928  0.02819286    -1.07800
C340        C  0.00116862  0.42546438  0.07739875     1.07600
C341        C  0.99933632  0.57705381  0.07019204     1.07500
C342        C  0.07781410  0.50562761  0.07255016     1.10500
C343        C  0.92438572  0.49905121  0.07169687     1.08300
H344        H  0.04365557  0.54394537  0.03778436     0.33800
O345        O  0.03147020  0.53073885  0.02581962    -1.28100
H346        H  0.95993429  0.45661367  0.04022302     0.33500
O347        O  0.97247700  0.46863534  0.02741285    -1.29700
O348        O  0.00343111  0.58155441  0.94374303    -0.85500
O349        O  0.00606737  0.41131835  0.95045983    -0.87000
O350        O  0.08525661  0.54832400  0.99179880    -0.85600
O351        O  0.91692675  0.54559076  0.99370532    -0.85600
O352        O  0.92004349  0.44891603  0.99707490    -0.85400
O353        O  0.08826486  0.45274866  0.00276848    -0.85200
O354        O  0.05164664  0.49760550  0.91184164    -0.85500
O355        O  0.95399875  0.49373636  0.91174773    -0.85000
O356        O  0.08749555  0.49959621  0.94826829    -0.86100
O357        O  0.91767443  0.49361032  0.94773969    -0.85200
O358        O  0.05017422  0.58523481  0.99017991    -0.85600
O359        O  0.05337432  0.41542163  0.00497503    -0.85300
O360        O  0.95505082  0.41189464  0.99866284    -0.85000
O361        O  0.95202788  0.58292415  0.99312739    -0.85400
O362        O  0.00432081  0.54346061  0.90952447    -0.85700
O363        O  0.00366489  0.44748114  0.91399517    -0.87000
Zr364      Zr  0.00155345  0.55989056  0.99421342     2.83100
Zr365      Zr  0.00361765  0.43736553  0.99916446     2.83500
Zr366      Zr  0.06201675  0.49977024  0.99685762     2.84100
Zr367      Zr  0.94266859  0.49791587  0.99604178     2.83400
Zr368      Zr  0.00283216  0.49643187  0.93654312     2.84200
O369        O  0.97340684  0.46664902  0.96774641    -1.07600
O370        O  0.03183173  0.52836357  0.96572052    -1.07100
C371        C  0.00491164  0.57137236  0.91663506     1.07600
C372        C  0.00502658  0.42013696  0.92281108     1.10200
C373        C  0.07746042  0.57589797  0.98923923     1.07700
C374        C  0.92477775  0.57332692  0.99293122     1.08100
C375        C  0.92777042  0.42122869  0.99798889     1.07700
C376        C  0.08059549  0.42513434  0.00582528     1.07200
C377        C  0.07912562  0.49904504  0.92054049     1.07600
C378        C  0.92641572  0.49259593  0.92023314     1.07200
H379        H  0.04641016  0.45483735  0.95584729     0.33800
O380        O  0.03334530  0.46725996  0.96765600    -1.28700
H381        H  0.95953293  0.53940354  0.95149755     0.33900
O382        O  0.97205110  0.52787332  0.96473331    -1.30100
N383        N  0.76605340  0.46120122  0.22858656    -0.02500
C384        C  0.73683008  0.45508857  0.22315933     0.00100
C385        C  0.72364017  0.44321546  0.24840649    -0.22800
C386        C  0.74532403  0.44168581  0.26999102    -0.23000
C387        C  0.77130061  0.45262827  0.25739628     0.00000
H388        H  0.70035557  0.43767186  0.25132891     0.13800
H389        H  0.74188971  0.43511727  0.29300802     0.13800
N390        N  0.23647373  0.50930703  0.23155904    -0.02500
C391        C  0.26610142  0.50653227  0.22650294     0.00100
C392        C  0.28172521  0.50466279  0.25301275    -0.22800
C393        C  0.26101218  0.50593133  0.27547326    -0.23000
C394        C  0.23360300  0.50848735  0.26172923     0.00000
H395        H  0.30549025  0.50164095  0.25561904     0.13800
H396        H  0.26528454  0.50390286  0.29921465     0.13800
N397        N  0.23664527  0.51186122  0.75952877    -0.02500
C398        C  0.23242542  0.51605576  0.72974457     0.00100
C399        C  0.25947655  0.51558861  0.71497266    -0.22800
C400        C  0.28102860  0.51121878  0.73633130    -0.23000
C401        C  0.26639363  0.50873805  0.76334023     0.00000
H402        H  0.26306901  0.51678372  0.69107407     0.13800
H403        H  0.30478835  0.50975031  0.73258681     0.13800
N404        N  0.76636475  0.49340421  0.76185547    -0.02500
C405        C  0.77065780  0.48922282  0.73200965     0.00100
C406        C  0.74386935  0.49006689  0.71685667    -0.22800
C407        C  0.72222806  0.49474364  0.73779728    -0.23000
C408        C  0.73636377  0.49649073  0.76519941     0.00000
H409        H  0.74047205  0.48735922  0.69303510     0.13800
H410        H  0.69852948  0.49617826  0.73360204     0.13800
N411        N  0.26237731  0.25894101  0.99503783    -0.02500
C412        C  0.26472609  0.22945029  0.98815054     0.00100
C413        C  0.23696102  0.21600340  0.98867872    -0.22800
C414        C  0.21688190  0.23775157  0.99610581    -0.23000
C415        C  0.23301105  0.26372569  0.00007747     0.00000
H416        H  0.23197769  0.19254722  0.98578746     0.13800
H417        H  0.19307177  0.23491444  0.99865553     0.13800
O418        O  0.49711971  0.44550700  0.08259223    -0.85500
O419        O  0.50594759  0.44554087  0.91300176    -0.85700
O420        O  0.45071062  0.41023345  0.99648381    -0.87400
O421        O  0.54908968  0.41094612  0.99752193    -0.86100
O422        O  0.58502283  0.44721967  0.99723539    -0.85700
O423        O  0.41481826  0.44632417  0.99520354    -0.87100
O424        O  0.50469445  0.40964646  0.94966070    -0.85600
O425        O  0.49759330  0.41018983  0.04538215    -0.85100
Zr426      Zr  0.49999184  0.43491918  0.99717990     2.84300
O427        O  0.53043968  0.46510763  0.96725856    -1.07100
O428        O  0.46970529  0.46522913  0.02663083    -1.07800
C429        C  0.49658847  0.41811638  0.07311851     1.07600
C430        C  0.50686044  0.41812632  0.92220819     1.07500
C431        C  0.42306333  0.41867679  0.99607783     1.10500
C432        C  0.57663967  0.41963521  0.99702536     1.08300
H433        H  0.45884868  0.45169701  0.95241124     0.33800
O434        O  0.47091440  0.46435560  0.96508900    -1.28100
H435        H  0.54175871  0.45233895  0.04109053     0.33500
O436        O  0.52946104  0.46483511  0.02854149    -1.29700
O437        O  0.50571835  0.54424598  0.91101542    -0.85500
O438        O  0.49826729  0.54523793  0.08159357    -0.87000
O439        O  0.41789710  0.49498940  0.94578211    -0.85600
O440        O  0.58555133  0.49727541  0.95052865    -0.85600
O441        O  0.58247509  0.49630752  0.04689599    -0.85400
O442        O  0.41486404  0.49360306  0.04202552    -0.85200
O443        O  0.45147137  0.57918136  0.99351775    -0.85500
O444        O  0.54922260  0.57968911  0.99956333    -0.85000
O445        O  0.41540835  0.54303577  0.99292598    -0.86100
O446        O  0.58493642  0.54333315  0.00084229    -0.85200
O447        O  0.45362588  0.49596443  0.90920203    -0.85600
O448        O  0.44859905  0.49346512  0.08065556    -0.85300
O449        O  0.54765805  0.49587629  0.08429064    -0.85000
O450        O  0.55093112  0.49632702  0.91275892    -0.85400
O451        O  0.50443754  0.57876241  0.94871183    -0.85700
O452        O  0.49996701  0.58042151  0.04420751    -0.87000
Zr453      Zr  0.50165611  0.49518890  0.93559421     2.83100
Zr454      Zr  0.49879597  0.49509879  0.05856286     2.83500
Zr455      Zr  0.44069405  0.49468292  0.99485369     2.77500
Zr456      Zr  0.55957987  0.49517407  0.99823737     2.83400
Zr457      Zr  0.50026135  0.55481197  0.99685207     2.84200
O458        O  0.52928838  0.52503481  0.02823194    -1.07600
O459        O  0.47089811  0.52528138  0.96524190    -1.07100
C460        C  0.50672152  0.57141615  0.92093619     1.07600
C461        C  0.49916575  0.57255667  0.07189228     1.10200
C462        C  0.42619729  0.49560001  0.91816827     1.07700
C463        C  0.57794459  0.49768730  0.92266867     1.08100
C464        C  0.57495265  0.49616340  0.07467962     1.07700
C465        C  0.42173061  0.49314462  0.06999493     1.07200
C466        C  0.42389415  0.57064505  0.99231253     1.07600
C467        C  0.57669164  0.57093101  0.00110151     1.07200
H468        H  0.45643941  0.53746239  0.03848864     0.33800
O469        O  0.46940900  0.52490283  0.02670116    -1.28700
H470        H  0.54400215  0.53776264  0.95553654     0.33900
O471        O  0.53087743  0.52519177  0.96711752    -1.30100
N472        N  0.73480867  0.73123602  0.00750957    -0.02500
C473        C  0.72891557  0.76019857  0.01414517     0.00100
C474        C  0.75505431  0.77631500  0.01670898    -0.22800
C475        C  0.77789101  0.75663049  0.01179015    -0.23000
C476        C  0.76498761  0.72910636  0.00645235     0.00000
H477        H  0.75723491  0.80006229  0.02059440     0.13800
H478        H  0.80144866  0.76180934  0.01198952     0.13800
N479        N  0.26781948  0.73246996  0.96699289    -0.02500
C480        C  0.27169749  0.76244680  0.96329528     0.00100
C481        C  0.24649493  0.77525811  0.95112538    -0.22800
C482        C  0.22616297  0.75282986  0.94726317    -0.23000
C483        C  0.23953299  0.72699227  0.95722184     0.00000
H484        H  0.24321957  0.79859489  0.94582811     0.13800
H485        H  0.20364960  0.75521090  0.93895395     0.13800
N486        N  0.73717664  0.26267437  0.00906775    -0.02500
C487        C  0.76701633  0.26753407  0.00833014     0.00100
C488        C  0.78238836  0.24097888  0.01060207    -0.22800
C489        C  0.76145079  0.21882989  0.01264923    -0.23000
C490        C  0.73401849  0.23261566  0.01132603     0.00000
H491        H  0.80629960  0.23804561  0.01001856     0.13800
H492        H  0.76570241  0.19509776  0.01401907     0.13800
C493        C  0.65185741  0.37939526  0.99124287    -0.13400
C494        C  0.64344019  0.34952087  0.99558345     0.17000
C495        C  0.61299438  0.34293756  0.00011795     0.03300
C496        C  0.59192366  0.36597986  0.00055168    -0.11900
C497        C  0.60021899  0.39601561  0.99628971    -0.03000
C498        C  0.63079882  0.40248459  0.99130447     0.02500
C499        C  0.66699278  0.32611401  0.99784490     0.09400
N500        N  0.60291137  0.31287811  0.00383934     0.65700
H501        H  0.56879871  0.36010227  0.00425087     0.18600
N502        N  0.64112852  0.43227939  0.98629527     0.76200
H503        H  0.67516476  0.38505102  0.98850773     0.10100
C504        C  0.68946037  0.32286049  0.97591219     0.03800
C505        C  0.71268138  0.30241689  0.98030590    -0.04900
C506        C  0.71383767  0.28454688  0.00600604    -0.23300
C507        C  0.69144483  0.28766701  0.02789405     0.13100
C508        C  0.66847719  0.30839785  0.02372499    -0.12400
N509        N  0.68850942  0.33937645  0.94858773     0.64800
H510        H  0.72948953  0.29979915  0.96313900     0.12600
N511        N  0.69254283  0.27112568  0.05520780     0.61400
H512        H  0.65231537  0.31143812  0.04142294     0.08800
O513        O  0.64652440  0.44082266  0.95994132    -0.40100
O514        O  0.65093141  0.44735791  0.00803464    -0.39200
O515        O  0.59526259  0.30395306  0.02949532    -0.39200
O516        O  0.59476320  0.29823345  0.98114678    -0.36900
O517        O  0.71060685  0.27896787  0.07537008    -0.37800
O518        O  0.67127776  0.25388000  0.06183895    -0.34000
O519        O  0.70717643  0.36003274  0.94424328    -0.35400
O520        O  0.67424525  0.32888367  0.92663604    -0.39700
C521        C  0.34918116  0.61154803  0.98274536    -0.13400
C522        C  0.35819226  0.64160172  0.98293853     0.17000
C523        C  0.38864671  0.64806381  0.98745908     0.03300
C524        C  0.40927146  0.62478899  0.99096735    -0.11900
C525        C  0.40052481  0.59454329  0.98984581    -0.03000
C526        C  0.36978680  0.58818160  0.98574497     0.02500
C527        C  0.33546166  0.66567161  0.97848039     0.09400
N528        N  0.39929728  0.67814801  0.98734698     0.65700
H529        H  0.43249027  0.63065438  0.99404967     0.18600
N530        N  0.35892481  0.55822111  0.98386488     0.76200
H531        H  0.32581772  0.60605955  0.98012502     0.10100
C532        C  0.31567947  0.66507954  0.95391371     0.03800
C533        C  0.29367930  0.68699839  0.95098251    -0.04900
C534        C  0.29054961  0.71004488  0.97202512    -0.23300
C535        C  0.31034482  0.71082674  0.99667565     0.13100
C536        C  0.33247285  0.68875011  0.99962138    -0.12400
N537        N  0.31818609  0.64284665  0.93113428     0.64800
H538        H  0.27919241  0.68637874  0.93161008     0.12600
N539        N  0.30762561  0.73289591  0.01959949     0.61400
H540        H  0.34682969  0.68914425  0.01909314     0.08800
O541        O  0.35397879  0.54686056  0.95850350    -0.40100
O542        O  0.34833433  0.54585286  0.00689733    -0.39200
O543        O  0.40774210  0.68996404  0.01154226    -0.39200
O544        O  0.40623615  0.69026178  0.96283079    -0.36900
O545        O  0.28730964  0.73025135  0.03889720    -0.37800
O546        O  0.32935044  0.75000967  0.02498090    -0.34000
O547        O  0.29856867  0.62272161  0.92909022    -0.35400
O548        O  0.33608162  0.64689167  0.90975589    -0.39700
C549        C  0.65102531  0.61056117  0.01625901    -0.13400
C550        C  0.64551194  0.63903902  0.00472238     0.17000
C551        C  0.61745688  0.64525066  0.99217031     0.03300
C552        C  0.59531279  0.62302530  0.99137198    -0.11900
C553        C  0.60061378  0.59424600  0.00293687    -0.03000
C554        C  0.62903219  0.58823368  0.01553445     0.02500
C555        C  0.66926246  0.66213531  0.00579783     0.09400
N556        N  0.61119985  0.67418406  0.98029243     0.65700
H557        H  0.57395854  0.62828538  0.98140885     0.18600
N558        N  0.63571084  0.55998648  0.02877329     0.76200
H559        H  0.67253455  0.60568488  0.02610608     0.10100
C560        C  0.67474994  0.67859362  0.03207098     0.03800
C561        C  0.69623455  0.70131029  0.03205796    -0.04900
C562        C  0.71318096  0.70744077  0.00643873    -0.23300
C563        C  0.70802468  0.69074185  0.98020420     0.13100
C564        C  0.68605250  0.66833818  0.98003911    -0.12400
N565        N  0.65863066  0.67248157  0.05891953     0.64800
H566        H  0.70012285  0.71403953  0.05229904     0.12600
N567        N  0.72381830  0.69722310  0.95324559     0.61400
H568        H  0.68181965  0.65595312  0.95964588     0.08800
O569        O  0.62962415  0.55566979  0.05598289    -0.40100
O570        O  0.65340117  0.54248762  0.01568444    -0.39200
O571        O  0.61557493  0.67934653  0.95289524    -0.39200
O572        O  0.60571894  0.69555821  0.99781071    -0.36900
O573        O  0.74337540  0.67922517  0.94412941    -0.37800
O574        O  0.71332000  0.71621535  0.93529176    -0.34000
O575        O  0.66916373  0.65426915  0.07765205    -0.35400
O576        O  0.63750942  0.68936596  0.06653040    -0.39700
C577        C  0.32621887  0.30869346  0.97209506    -0.13400
C578        C  0.33268062  0.32371932  0.99895015     0.17000
C579        C  0.31565376  0.31687970  0.02462771     0.03300
C580        C  0.29265143  0.29556174  0.02307586    -0.11900
C581        C  0.28603777  0.28086992  0.99617781    -0.03000
C582        C  0.30286722  0.28770405  0.97048040     0.02500
C583        C  0.35584112  0.34779144  0.99920439     0.09400
N584        N  0.32146658  0.33139850  0.05246265     0.65700
H585        H  0.27993621  0.29034400  0.04296683     0.18600
N586        N  0.29537060  0.27453999  0.94231477     0.76200
H587        H  0.33866867  0.31410912  0.95204970     0.10100
C588        C  0.38645887  0.34132186  0.00096923     0.03800
C589        C  0.40768310  0.36451587  0.00007935    -0.04900
C590        C  0.39924966  0.39471137  0.99697648    -0.23300
C591        C  0.36823151  0.40095984  0.99492874     0.13100
C592        C  0.34712885  0.37765573  0.99624193    -0.12400
N593        N  0.39640070  0.31118349  0.00351727     0.64800
H594        H  0.43101082  0.35863877  0.00169484     0.12600
N595        N  0.35749584  0.43062748  0.99054576     0.61400
H596        H  0.32364909  0.38292852  0.99443742     0.08800
O597        O  0.26974438  0.27822008  0.93130912    -0.40100
O598        O  0.31415994  0.25874629  0.92862162    -0.39200
O599        O  0.30565644  0.35332637  0.06016994    -0.39200
O600        O  0.33742637  0.31851561  0.07175763    -0.36900
O601        O  0.34814481  0.43813225  0.96502368    -0.37800
O602        O  0.35040612  0.44614022  0.01298592    -0.34000
O603        O  0.40408611  0.29715144  0.98031369    -0.35400
O604        O  0.40285209  0.30078191  0.02892869    -0.39700
C605        C  0.69428237  0.47936376  0.83662692    -0.13400
C606        C  0.67329559  0.50248457  0.83619998     0.17000
C607        C  0.67610679  0.52553325  0.81505758     0.03300
C608        C  0.69887035  0.52438795  0.79379934    -0.11900
C609        C  0.71906059  0.50049217  0.79305792    -0.03000
C610        C  0.71705384  0.47808200  0.81515511     0.02500
C611        C  0.64836946  0.50198803  0.85771477     0.09400
N612        N  0.65512505  0.54943071  0.81394098     0.65700
H613        H  0.69985810  0.54151773  0.77668715     0.18600
N614        N  0.73622363  0.45271142  0.81471179     0.76200
H615        H  0.69223913  0.46161371  0.85298333     0.10100
C616        C  0.62176485  0.48648670  0.85138108     0.03800
C617        C  0.59889531  0.48565315  0.87261436    -0.04900
C618        C  0.60209739  0.50005685  0.90030608    -0.23300
C619        C  0.62853663  0.51621800  0.90627274     0.13100
C620        C  0.65147305  0.51685598  0.88507300    -0.12400
N621        N  0.61774267  0.47129234  0.82357805     0.64800
H622        H  0.57876414  0.47321301  0.86760444     0.12600
N623        N  0.63207112  0.53278812  0.93336699     0.61400
H624        H  0.67172956  0.52917192  0.88987399     0.08800
O625        O  0.72862641  0.42996183  0.79988874    -0.40100
O626        O  0.75608010  0.45026655  0.83453757    -0.39200
O627        O  0.66227325  0.57463132  0.82434158    -0.39200
O628        O  0.63263301  0.54723807  0.79714335    -0.36900
O629        O  0.61715472  0.55624402  0.93762549    -0.37800
O630        O  0.64943667  0.52346064  0.95346692    -0.34000
O631        O  0.62247864  0.44357782  0.82222012    -0.35400
O632        O  0.60315967  0.48376754  0.80295889    -0.39700
C633        C  0.37872267  0.51097590  0.84893161    -0.13400
C634        C  0.35089745  0.50009026  0.85842235     0.17000
C635        C  0.34879002  0.48576151  0.88632010     0.03300
C636        C  0.37389841  0.48373842  0.90463672    -0.11900
C637        C  0.40158597  0.49566969  0.89588281    -0.03000
C638        C  0.40397888  0.50889194  0.86730636     0.02500
C639        C  0.32479566  0.50282186  0.83825789     0.09400
N640        N  0.32107987  0.47412112  0.89691753     0.65700
H641        H  0.37149268  0.47319316  0.92625708     0.18600
N642        N  0.43135714  0.52151002  0.85706458     0.76200
H643        H  0.38084681  0.52125668  0.82709063     0.10100
C644        C  0.31592304  0.53081538  0.82695496     0.03800
C645        C  0.29492495  0.53229886  0.80392032    -0.04900
C646        C  0.28227247  0.50630809  0.79204181    -0.23300
C647        C  0.28966874  0.47838501  0.80450417     0.13100
C648        C  0.31071918  0.47688555  0.82762238    -0.12400
N649        N  0.32877932  0.55787142  0.83798601     0.64800
H650        H  0.28960781  0.55379749  0.79421128     0.12600
N651        N  0.27791047  0.45125789  0.79242062     0.61400
H652        H  0.31760478  0.45520969  0.83580511     0.08800
O653        O  0.43530681  0.54934071  0.85896757    -0.40100
O654        O  0.44802819  0.50632077  0.84024063    -0.39200
O655        O  0.31686133  0.44625942  0.89705339    -0.39200
O656        O  0.30414524  0.49068019  0.91208111    -0.36900
O657        O  0.26192523  0.43468118  0.80868641    -0.37800
O658        O  0.28886819  0.44079334  0.76865735    -0.34000
O659        O  0.34656559  0.57245753  0.82170027    -0.35400
O660        O  0.31784181  0.57006447  0.86091004    -0.39700
C661        C  0.31062933  0.52463292  0.15774353    -0.13400
C662        C  0.32006122  0.49599220  0.14913594     0.17000
C663        C  0.30820899  0.47077250  0.16388476     0.03300
C664        C  0.28890049  0.47463164  0.18804445    -0.11900
C665        C  0.28056819  0.50324234  0.19730092    -0.03000
C666        C  0.29093083  0.52835941  0.18166386     0.02500
C667        C  0.34516344  0.49328784  0.12785192     0.09400
N668        N  0.31631564  0.44117971  0.15523738     0.65700
H669        H  0.28127287  0.45524098  0.20039968     0.18600
N670        N  0.28374105  0.55776760  0.19159490     0.76200
H671        H  0.32005626  0.54424330  0.14714515     0.10100
C672        C  0.34415358  0.50666444  0.09939441     0.03800
C673        C  0.36948527  0.50660548  0.08133285    -0.04900
C674        C  0.39609300  0.49299351  0.09078161    -0.23300
C675        C  0.39687317  0.47888953  0.11896173     0.13100
C676        C  0.37163466  0.47952715  0.13735787    -0.12400
N677        N  0.31742893  0.51993051  0.08826720     0.64800
H678        H  0.36823584  0.51734995  0.05965385     0.12600
N679        N  0.42253667  0.46279483  0.12870794     0.61400
H680        H  0.37288897  0.46955978  0.15939629     0.08800
O681        O  0.26052788  0.57038586  0.18205242    -0.40100
O682        O  0.29880567  0.56982415  0.21216553    -0.39200
O683        O  0.33349197  0.42623572  0.17178838    -0.39200
O684        O  0.30107071  0.42787309  0.13560084    -0.36900
O685        O  0.44041326  0.47480131  0.14689299    -0.37800
O686        O  0.42408025  0.43507517  0.12393660    -0.34000
O687        O  0.31571312  0.54797314  0.08628553    -0.35400
O688        O  0.29892387  0.50392877  0.07427032    -0.39700
C689        C  0.68031352  0.44995634  0.16044321    -0.13400
C690        C  0.67585494  0.48009568  0.15371717     0.17000
C691        C  0.69429296  0.50178917  0.16702370     0.03300
C692        C  0.71578284  0.49315040  0.18819644    -0.11900
C693        C  0.71940007  0.46294871  0.19602204    -0.03000
C694        C  0.70165597  0.44123454  0.18148032     0.02500
C695        C  0.65100887  0.48809203  0.13351321     0.09400
N696        N  0.69097744  0.53261789  0.15959307     0.65700
H697        H  0.72841728  0.51022913  0.19972136     0.18600
N698        N  0.70426936  0.41023185  0.18850138     0.76200
H699        H  0.66636819  0.43311574  0.15002145     0.10100
C700        C  0.65351264  0.48345477  0.10262937     0.03800
C701        C  0.62861130  0.48671960  0.08434787    -0.04900
C702        C  0.60057375  0.49495416  0.09599695    -0.23300
C703        C  0.59845701  0.50112708  0.12695789     0.13100
C704        C  0.62359245  0.49737686  0.14544524    -0.12400
N705        N  0.68123250  0.47503320  0.08946132     0.64800
H706        H  0.63142509  0.48207952  0.06073923     0.12600
N707        N  0.57139712  0.51173331  0.13989908     0.61400
H708        H  0.62159554  0.50123160  0.16929086     0.08800
O709        O  0.68669136  0.39888360  0.20738275    -0.40100
O710        O  0.71746749  0.39329921  0.17030267    -0.39200
O711        O  0.67313133  0.54866143  0.17424776    -0.39200
O712        O  0.70261381  0.54268001  0.13595043    -0.36900
O713        O  0.55587727  0.49441343  0.15582282    -0.37800
O714        O  0.56653957  0.53945318  0.14079609    -0.34000
O715        O  0.68664704  0.44777881  0.08497439    -0.35400
O716        O  0.69682192  0.49458589  0.07645259    -0.39700
C717        C  0.85038717  0.61171796  0.97860619    -0.13400
C718        C  0.85445537  0.63873526  0.99374930     0.17000
C719        C  0.88179695  0.64448337  0.00815232     0.03300
C720        C  0.90466579  0.62325832  0.00703034    -0.11900
C721        C  0.90057588  0.59587624  0.99221352    -0.03000
C722        C  0.87299357  0.59023647  0.97786919     0.02500
C723        C  0.82948349  0.66015196  0.99521490     0.09400
N724        N  0.88637941  0.67144402  0.02461721     0.65700
H725        H  0.92542250  0.62789734  0.01853437     0.18600
N726        N  0.86764483  0.56300692  0.96208980     0.76200
H727        H  0.82938047  0.60715935  0.96753229     0.10100
C728        C  0.82530640  0.68187308  0.97288502     0.03800
C729        C  0.80247654  0.70288541  0.97587945    -0.04900
C730        C  0.78314019  0.70224694  0.00055938    -0.23300
C731        C  0.78627279  0.67939026  0.02199174     0.13100
C732        C  0.80944536  0.65861443  0.01921270    -0.12400
N733        N  0.84457259  0.68334015  0.94750110     0.64800
H734        H  0.80046911  0.72050457  0.95937966     0.12600
N735        N  0.76737937  0.67804244  0.04762819     0.61400
H736        H  0.81230635  0.64166935  0.03627377     0.08800
O737        O  0.87281431  0.56174009  0.93437821    -0.40100
O738        O  0.85234849  0.54270966  0.97428136    -0.39200
O739        O  0.88264584  0.67143411  0.05259368    -0.39200
O740        O  0.89981366  0.69302463  0.01244213    -0.36900
O741        O  0.74747193  0.65815400  0.04892838    -0.37800
O742        O  0.77508478  0.69140976  0.07124703    -0.34000
O743        O  0.83640967  0.67170590  0.92312498    -0.35400
O744        O  0.86658943  0.70089665  0.94778401    -0.39700
C745        C  0.88120669  0.34936181  0.99557875    -0.13400
C746        C  0.85224578  0.36113207  0.99688426     0.17000
C747        C  0.84849518  0.39209540  0.99934450     0.03300
C748        C  0.87336124  0.41074917  0.00029383    -0.11900
C749        C  0.90260029  0.39939148  0.99833426    -0.03000
C750        C  0.90633237  0.36809524  0.99618265     0.02500
C751        C  0.82627732  0.34067874  0.99725797     0.09400
N752        N  0.81947188  0.40508828  0.99981140     0.65700
H753        H  0.86939842  0.43452453  0.00205971     0.18600
N754        N  0.93521018  0.35486394  0.99455474     0.76200
H755        H  0.88433754  0.32541505  0.99437665     0.10100
C756        C  0.82136542  0.32031474  0.97378935     0.03800
C757        C  0.79964330  0.29818118  0.97680174    -0.04900
C758        C  0.78247614  0.29600303  0.00286820    -0.23300
C759        C  0.78577655  0.31761659  0.02548358     0.13100
C760        C  0.80763020  0.33984461  0.02250307    -0.12400
N761        N  0.83887640  0.32132672  0.94713732     0.64800
H762        H  0.79721578  0.28157266  0.95932208     0.12600
N763        N  0.76910628  0.31570115  0.05263180     0.61400
H764        H  0.81128299  0.35533415  0.04076565     0.08800
O765        O  0.94763667  0.34584560  0.01820399    -0.40100
O766        O  0.94530786  0.34673982  0.96951562    -0.39200
O767        O  0.81013155  0.41732422  0.02342207    -0.39200
O768        O  0.80598095  0.40958133  0.97546413    -0.36900
O769        O  0.77843574  0.29943672  0.07367577    -0.37800
O770        O  0.74883642  0.33448001  0.05771360    -0.34000
O771        O  0.85820993  0.30147181  0.94249763    -0.35400
O772        O  0.83112512  0.33827577  0.92599715    -0.39700
C773        C  0.19379568  0.66471970  0.99114596    -0.13400
C774        C  0.17809437  0.65446695  0.96604857     0.17000
C775        C  0.18592586  0.66519860  0.93749461     0.03300
C776        C  0.20789093  0.68735075  0.93473239    -0.11900
C777        C  0.22251066  0.69878985  0.96007711    -0.03000
C778        C  0.21574005  0.68683219  0.98841877     0.02500
C779        C  0.15230144  0.63426858  0.97066248     0.09400
N780        N  0.17150603  0.65408743  0.91124319     0.65700
H781        H  0.21277308  0.69650367  0.91282505     0.18600
N782        N  0.22856645  0.69906895  0.01495470     0.76200
H783        H  0.18772854  0.65677183  0.01322634     0.10100
C784        C  0.15649427  0.60492878  0.98071331     0.03800
C785        C  0.13190090  0.58690912  0.98710970    -0.04900
C786        C  0.10245715  0.59749329  0.98411784    -0.23300
C787        C  0.09831659  0.62737205  0.97457519     0.13100
C788        C  0.12318895  0.64529482  0.96769644    -0.12400
N789        N  0.18573973  0.59297101  0.98427720     0.64800
H790        H  0.13617507  0.56427032  0.99441908     0.12600
N791        N  0.06926483  0.64005705  0.97202067     0.61400
H792        H  0.11978826  0.66818375  0.96064634     0.08800
O793        O  0.21810738  0.72289753  0.02568009    -0.40100
O794        O  0.24517814  0.68294189  0.03094167    -0.39200
O795        O  0.15248892  0.66999293  0.89796415    -0.39200
O796        O  0.18170055  0.63121211  0.89840062    -0.36900
O797        O  0.05861834  0.65449169  0.99374836    -0.37800
O798        O  0.05718322  0.64215034  0.94661862    -0.34000
O799        O  0.19757346  0.59262707  0.00988037    -0.35400
O800        O  0.19701816  0.57770073  0.96347503    -0.39700
C801        C  0.15722731  0.38949791  0.01715639    -0.13400
C802        C  0.15059544  0.35933147  0.01253355     0.17000
C803        C  0.12077782  0.35059477  0.00823072     0.03300
C804        C  0.09835092  0.37220512  0.00659371    -0.11900
C805        C  0.10488675  0.40276287  0.01002106    -0.03000
C806        C  0.13472137  0.41112460  0.01664415     0.02500
C807        C  0.17511591  0.33734572  0.01120730     0.09400
N808        N  0.11301662  0.31984780  0.00481774     0.65700
H809        H  0.07576061  0.36490579  0.00213333     0.18600
N810        N  0.14251653  0.44117018  0.02407044     0.76200
H811        H  0.18003568  0.39626877  0.02141135     0.10100
C812        C  0.19391198  0.33584567  0.98598790     0.03800
C813        C  0.21555153  0.31346817  0.98408123    -0.04900
C814        C  0.21858261  0.29239262  0.00696776    -0.23300
C815        C  0.20117273  0.29504229  0.03305233     0.13100
C816        C  0.17938288  0.31731166  0.03491916    -0.12400
N817        N  0.18946087  0.35522592  0.96101889     0.64800
H818        H  0.22826317  0.31107922  0.96363356     0.12600
N819        N  0.20472207  0.27436153  0.05719066     0.61400
H820        H  0.16541787  0.31866602  0.05463346     0.08800
O821        O  0.14202909  0.44922940  0.05111885    -0.40100
O822        O  0.15592652  0.45713837  0.00509074    -0.39200
O823        O  0.10379891  0.30533268  0.02718165    -0.39200
O824        O  0.10972834  0.30911406  0.97893463    -0.36900
O825        O  0.18407468  0.25627088  0.06349390    -0.37800
O826        O  0.22938379  0.27249147  0.07060874    -0.34000
O827        O  0.20816618  0.37558748  0.95563238    -0.35400
O828        O  0.17016622  0.34862119  0.94156355    -0.39700
C829        C  0.85373418  0.47591160  0.87837872    -0.13400
C830        C  0.85926877  0.48936332  0.85064171     0.17000
C831        C  0.88694155  0.50341648  0.84574464     0.03300
C832        C  0.90861105  0.50365418  0.86838666    -0.11900
C833        C  0.90308344  0.49060974  0.89647886    -0.03000
C834        C  0.87513692  0.47658319  0.90130463     0.02500
C835        C  0.83530470  0.48998015  0.82771672     0.09400
N836        N  0.89319567  0.51794592  0.81800117     0.65700
H837        H  0.92963394  0.51481906  0.86416005     0.18600
N838        N  0.86822756  0.46238427  0.92908042     0.76200
H839        H  0.83245736  0.46515216  0.88239878     0.10100
C840        C  0.82930531  0.46518636  0.80924512     0.03800
C841        C  0.80660565  0.46675029  0.78772468    -0.04900
C842        C  0.78892571  0.49237874  0.78485245    -0.23300
C843        C  0.79436086  0.51688077  0.80397635     0.13100
C844        C  0.81762443  0.51559092  0.82494479    -0.12400
N845        N  0.84585125  0.43817955  0.81230113     0.64800
H846        H  0.80238486  0.44769686  0.77340215     0.12600
N847        N  0.77734543  0.54366558  0.80159575     0.61400
H848        H  0.82192677  0.53470444  0.83918180     0.08800
O849        O  0.85147399  0.47545736  0.94753428    -0.40100
O850        O  0.87304669  0.43480976  0.93204299    -0.39200
O851        O  0.88918540  0.54571782  0.81568751    -0.39200
O852        O  0.90809688  0.50446971  0.79828782    -0.36900
O853        O  0.75840758  0.54955955  0.82156193    -0.37800
O854        O  0.78662295  0.56443753  0.78495098    -0.34000
O855        O  0.83514141  0.41702226  0.82755793    -0.35400
O856        O  0.86740620  0.43319872  0.79492928    -0.39700
C857        C  0.12120344  0.49192565  0.84624742    -0.13400
C858        C  0.14850072  0.50561406  0.85298002     0.17000
C859        C  0.15296051  0.51726509  0.88193816     0.03300
C860        C  0.13025817  0.51492244  0.90355389    -0.11900
C861        C  0.10289041  0.50076195  0.89701561    -0.03000
C862        C  0.09866169  0.48914726  0.86782324     0.02500
C863        C  0.17195865  0.50732461  0.82939548     0.09400
N864        N  0.18075550  0.53075213  0.88991441     0.65700
H865        H  0.13415534  0.52416901  0.92561668     0.18600
N866        N  0.07216211  0.47325395  0.85993996     0.76200
H867        H  0.11746298  0.48295862  0.82404174     0.10100
C868        C  0.18471510  0.48114309  0.81746750     0.03800
C869        C  0.20561186  0.48300941  0.79425820    -0.04900
C870        C  0.21433823  0.51065410  0.78263939    -0.23300
C871        C  0.20192788  0.53690990  0.79455373     0.13100
C872        C  0.18083911  0.53514835  0.81776737    -0.12400
N873        N  0.17726013  0.45249813  0.82933863     0.64800
H874        H  0.21509823  0.46278455  0.78514509     0.12600
N875        N  0.21070733  0.56542068  0.78326742     0.61400
H876        H  0.17119150  0.55547844  0.82656118     0.08800
O877        O  0.07070867  0.44553938  0.86477410    -0.40100
O878        O  0.05361234  0.48513754  0.84243286    -0.39200
O879        O  0.18250556  0.55865220  0.89338554    -0.39200
O880        O  0.20388919  0.51496513  0.89213291    -0.36900
O881        O  0.19552407  0.57786923  0.76309370    -0.37800
O882        O  0.23414829  0.57779216  0.79275710    -0.34000
O883        O  0.15837332  0.43639789  0.81599403    -0.35400
O884        O  0.19352760  0.44113082  0.84931834    -0.39700
C885        C  0.15223148  0.51668311  0.11265411    -0.13400
C886        C  0.14498745  0.50702452  0.14155052     0.17000
C887        C  0.11550544  0.49874061  0.14808348     0.03300
C888        C  0.09396108  0.49891849  0.12549275    -0.11900
C889        C  0.10109004  0.50783480  0.09618070    -0.03000
C890        C  0.13054210  0.51767785  0.09009425     0.02500
C891        C  0.16812544  0.50699782  0.16506456     0.09400
N892        N  0.10722642  0.48972385  0.17757177     0.65700
H893        H  0.07160894  0.49158712  0.13095497     0.18600
N894        N  0.13844136  0.53033659  0.06180240     0.76200
H895        H  0.17470535  0.52412299  0.10778797     0.10100
C896        C  0.18996064  0.48462419  0.16629387     0.03800
C897        C  0.21187930  0.48558161  0.18853432    -0.04900
C898        C  0.21303336  0.50902884  0.20935607    -0.23300
C899        C  0.19103113  0.53161616  0.20795866     0.13100
C900        C  0.16865520  0.53009837  0.18609268    -0.12400
N901        N  0.18989953  0.46060628  0.14529131     0.64800
H902        H  0.22789155  0.46765254  0.18978382     0.12600
N903        N  0.19163593  0.55692278  0.22744388     0.61400
H904        H  0.15207257  0.54759938  0.18488034     0.08800
O905        O  0.15379489  0.51536435  0.04358577    -0.40100
O906        O  0.13556632  0.55806710  0.05780858    -0.39200
O907        O  0.09448175  0.50807839  0.19468523    -0.39200
O908        O  0.10787044  0.46243695  0.18450912    -0.36900
O909        O  0.21301261  0.57517525  0.22579723    -0.37800
O910        O  0.16799516  0.56480359  0.24049893    -0.34000
O911        O  0.20863297  0.46042410  0.12426365    -0.35400
O912        O  0.17473278  0.43746427  0.15062755    -0.39700
C913        C  0.84902218  0.50063213  0.11301393    -0.13400
C914        C  0.85673114  0.48824568  0.14083867     0.17000
C915        C  0.88675432  0.48048924  0.14588157     0.03300
C916        C  0.90820553  0.48520595  0.12352027    -0.11900
C917        C  0.90063106  0.49690730  0.09533343    -0.03000
C918        C  0.87042293  0.50477057  0.09029699     0.02500
C919        C  0.83308539  0.48189453  0.16364085     0.09400
N920        N  0.89590119  0.46759296  0.17363010     0.65700
H921        H  0.93093621  0.47880839  0.12806533     0.18600
N922        N  0.86091803  0.51691924  0.06232463     0.76200
H923        H  0.82601838  0.50636058  0.10854013     0.10100
C924        C  0.81505120  0.50470231  0.17585260     0.03800
C925        C  0.79308783  0.49772927  0.19719384    -0.04900
C926        C  0.78830403  0.46820109  0.20635682    -0.23300
C927        C  0.80565063  0.44536893  0.19369749     0.13100
C928        C  0.82791433  0.45227267  0.17274528    -0.12400
N929        N  0.81917489  0.53514719  0.16732949     0.64800
H930        H  0.78004904  0.51549445  0.20699369     0.12600
N931        N  0.80028017  0.41493228  0.20153780     0.61400
H932        H  0.84079861  0.43431389  0.16303332     0.08800
O933        O  0.85728266  0.54473472  0.05987939    -0.40100
O934        O  0.84997953  0.49977810  0.04276917    -0.39200
O935        O  0.90013707  0.43979713  0.17516959    -0.39200
O936        O  0.90607079  0.48426567  0.19397593    -0.36900
O937        O  0.81676071  0.40213109  0.22041028    -0.37800
O938        O  0.77790054  0.40140968  0.19110109    -0.34000
O939        O  0.80058100  0.54724957  0.15000751    -0.35400
O940        O  0.83687323  0.55135109  0.18211202    -0.39700
C941        C  0.52307961  0.34416773  0.88370013    -0.13400
C942        C  0.50913458  0.34878623  0.85613524     0.17000
C943        C  0.49636864  0.37667491  0.84964473     0.03300
C944        C  0.49677056  0.39925728  0.87114097    -0.11900
C945        C  0.50958447  0.39446068  0.89935242    -0.03000
C946        C  0.52344061  0.36670164  0.90537855     0.02500
C947        C  0.50617952  0.32374088  0.83508505     0.09400
N948        N  0.48233799  0.38214571  0.82150404     0.65700
H949        H  0.48611744  0.42033038  0.86601311     0.18600
N950        N  0.53843304  0.36114999  0.93303579     0.76200
H951        H  0.53318402  0.32276965  0.88861331     0.10100
C952        C  0.52919703  0.31646764  0.81511765     0.03800
C953        C  0.52440072  0.29456299  0.79340059    -0.04900
C954        C  0.49726729  0.27908326  0.79197438    -0.23300
C955        C  0.47479652  0.28529204  0.81296848     0.13100
C956        C  0.47936467  0.30766775  0.83432842    -0.12400
N957        N  0.55701155  0.33199332  0.81585573     0.64800
H958        H  0.54150713  0.29036690  0.77682987     0.12600
N959        N  0.44654885  0.27063111  0.81146633     0.61400
H960        H  0.46162289  0.31317360  0.84979282     0.08800
O961        O  0.56642580  0.36346673  0.93406746    -0.40100
O962        O  0.52503018  0.34716436  0.95353455    -0.39200
O963        O  0.45429064  0.38186334  0.81979988    -0.39200
O964        O  0.49735380  0.39329893  0.80041352    -0.36900
O965        O  0.42487636  0.28364520  0.79915690    -0.37800
O966        O  0.44182185  0.24793740  0.82750923    -0.34000
O967        O  0.57944691  0.31953489  0.82733004    -0.35400
O968        O  0.56046018  0.35524595  0.80029720    -0.39700
C969        C  0.52489863  0.61865754  0.85172059    -0.13400
C970        C  0.52362389  0.64754572  0.86390614     0.17000
C971        C  0.51672061  0.65104393  0.89429693     0.03300
C972        C  0.51075002  0.62603378  0.91182506    -0.11900
C973        C  0.51176216  0.59684343  0.89995186    -0.03000
C974        C  0.51916467  0.59335091  0.86936885     0.02500
C975        C  0.52556861  0.67369640  0.84376674     0.09400
N976        N  0.51598623  0.67993513  0.90783889     0.65700
H977        H  0.50548008  0.62983027  0.93515687     0.18600
N978        N  0.52066064  0.56457636  0.85566886     0.76200
H979        H  0.52949419  0.61576243  0.82810291     0.10100
C980        C  0.55028286  0.67823537  0.82494060     0.03800
C981        C  0.54849577  0.69897198  0.80166735    -0.04900
C982        C  0.52269898  0.71597752  0.79732719    -0.23300
C983        C  0.49888738  0.71325515  0.81769171     0.13100
C984        C  0.50050774  0.69210122  0.84065580    -0.12400
N985        N  0.57710207  0.66161939  0.82890796     0.64800
H986        H  0.56695861  0.70107701  0.78618409     0.12600
N987        N  0.47174573  0.72933054  0.81359000     0.61400
H988        H  0.48119061  0.68855189  0.85474976     0.08800
O989        O  0.54576035  0.55301420  0.85065174    -0.40100
O990        O  0.49799802  0.55434514  0.84246544    -0.39200
O991        O  0.49138524  0.69073599  0.91604925    -0.39200
O992        O  0.53989128  0.69147416  0.91722603    -0.36900
O993        O  0.45230975  0.71917366  0.79588555    -0.37800
O994        O  0.46429293  0.74864588  0.83270054    -0.34000
O995        O  0.58419422  0.64202313  0.80995403    -0.35400
O996        O  0.59640919  0.67090902  0.84721857    -0.39700
C997        C  0.52641535  0.67241368  0.17285773    -0.13400
C998        C  0.50136141  0.67169488  0.15424986     0.17000
C999        C  0.47927868  0.69376668  0.15730794     0.03300
C1000       C  0.48151389  0.71488187  0.18034881    -0.11900
C1001       C  0.50560570  0.71422398  0.20028679    -0.03000
C1002       C  0.52878823  0.69355941  0.19566637     0.02500
C1003       C  0.49897579  0.64739014  0.13209243     0.09400
N1004       N  0.45427047  0.69462827  0.13759983     0.65700
H1005       H  0.46354870  0.73062780  0.18374874     0.18600
N1006       N  0.55474060  0.69364404  0.21420107     0.76200
H1007       H  0.54391717  0.65603036  0.17004392     0.10100
C1008       C  0.51710252  0.64747250  0.10649037     0.03800
C1009       C  0.51717893  0.62268236  0.08747781    -0.04900
C1010       C  0.49947432  0.59743637  0.09366795    -0.23300
C1011       C  0.48149597  0.59730422  0.11951533     0.13100
C1012       C  0.48138806  0.62223488  0.13853195    -0.12400
N1013       N  0.53592015  0.67244999  0.09993831     0.64800
H1014       H  0.53124301  0.62313234  0.06777648     0.12600
N1015       N  0.46274849  0.57237581  0.12629285     0.61400
H1016       H  0.46783709  0.62185249  0.15858367     0.08800
O1017       O  0.55814154  0.67338586  0.23350835    -0.40100
O1018       O  0.57673488  0.70963732  0.20688242    -0.39200
O1019       O  0.43061659  0.68113235  0.14471460    -0.39200
O1020       O  0.45373612  0.71359242  0.11673418    -0.36900
O1021       O  0.43925884  0.56799204  0.11139483    -0.37800
O1022       O  0.47126593  0.55303645  0.14492619    -0.34000
O1023       O  0.56356924  0.67073749  0.10467163    -0.35400
O1024       O  0.52459572  0.69719228  0.09276510    -0.39700
C1025       C  0.50373207  0.37012423  0.14370173    -0.13400
C1026       C  0.48903656  0.34386205  0.13465280     0.17000
C1027       C  0.47657272  0.34255099  0.10580463     0.03300
C1028       C  0.47930622  0.36692991  0.08640143    -0.11900
C1029       C  0.49409227  0.39326771  0.09516973    -0.03000
C1030       C  0.50630829  0.39476444  0.12427499     0.02500
C1031       C  0.48456197  0.31900510  0.15628461     0.09400
N1032       N  0.46095093  0.31654876  0.09589137     0.65700
H1033       H  0.46941310  0.36528813  0.06433523     0.18600
N1034       N  0.52186325  0.42082644  0.13419589     0.76200
H1035       H  0.51304560  0.37155087  0.16602429     0.10100
C1036       C  0.50761197  0.29911720  0.16403862     0.03800
C1037       C  0.50273749  0.27701414  0.18583569    -0.04900
C1038       C  0.47523478  0.27460020  0.20055387    -0.23300
C1039       C  0.45184808  0.29396317  0.19196079     0.13100
C1040       C  0.45665469  0.31566173  0.16986029    -0.12400
N1041       N  0.53634732  0.30162549  0.15062071     0.64800
H1042       H  0.52112939  0.26293021  0.19255058     0.12600
N1043       N  0.42317603  0.29232113  0.20579197     0.61400
H1044       H  0.43867988  0.33062786  0.16387618     0.08800
O1045       O  0.50892139  0.43939251  0.15092696    -0.40100
O1046       O  0.54732205  0.42683807  0.12382644    -0.39200
O1047       O  0.43285638  0.31621634  0.09643211    -0.39200
O1048       O  0.47465737  0.29690798  0.08113296    -0.36900
O1049       O  0.41641296  0.31121995  0.22556963    -0.37800
O1050       O  0.40260720  0.27811357  0.19280339    -0.34000
O1051       O  0.55652741  0.31609421  0.16393769    -0.35400
O1052       O  0.54329999  0.28419034  0.12960727    -0.39700
C1053       C  0.65214292  0.11629559  0.00690813    -0.13400
C1054       C  0.64105678  0.14550503  0.00464570     0.17000
C1055       C  0.61087043  0.14981016  0.99778898     0.03300
C1056       C  0.59217325  0.12520027  0.99430472    -0.11900
C1057       C  0.60266899  0.09575094  0.99793031    -0.03000
C1058       C  0.63331945  0.09146702  0.00377062     0.02500
C1059       C  0.66159692  0.17112194  0.00829406     0.09400
N1060       N  0.59852821  0.17908717  0.99540088     0.65700
H1061       H  0.56894526  0.12952150  0.98943136     0.18600
N1062       N  0.64580069  0.06232701  0.00675183     0.76200
H1063       H  0.67563577  0.11272480  0.01108109     0.10100
C1064       C  0.67899761  0.17431540  0.03431594     0.03800
C1065       C  0.70112123  0.19617322  0.03548650    -0.04900
C1066       C  0.70610159  0.21535330  0.01125842    -0.23300
C1067       C  0.68770000  0.21333070  0.98577168     0.13100
C1068       C  0.66556315  0.19126360  0.98453615    -0.12400
N1069       N  0.67484730  0.15514661  0.05952586     0.64800
H1070       H  0.71527363  0.19753533  0.05510296     0.12600
N1071       N  0.69298450  0.23136552  0.95993109     0.61400
H1072       H  0.65266177  0.18869878  0.96420536     0.08800
O1073       O  0.65068856  0.05192226  0.03251634    -0.40100
O1074       O  0.65811369  0.05038903  0.98441963    -0.39200
O1075       O  0.59109092  0.18894298  0.97003593    -0.39200
O1076       O  0.58916400  0.19200081  0.01863214    -0.36900
O1077       O  0.71227016  0.22322070  0.94112390    -0.37800
O1078       O  0.67387417  0.25055267  0.95239117    -0.34000
O1079       O  0.69357933  0.13484919  0.06473529    -0.35400
O1080       O  0.65678652  0.16265040  0.07976527    -0.39700
C1081       C  0.31643195  0.82606672  0.99513710    -0.13400
C1082       C  0.34244359  0.82504971  0.97788464     0.17000
C1083       C  0.34672546  0.80070538  0.95813096     0.03300
C1084       C  0.32423699  0.77897602  0.95486407    -0.11900
C1085       C  0.29782900  0.78084743  0.97143817    -0.03000
C1086       C  0.29432140  0.80432459  0.99213268     0.02500
C1087       C  0.36401036  0.85017183  0.98096889     0.09400
N1088       N  0.37386497  0.79734610  0.94178900     0.65700
H1089       H  0.32705294  0.76108099  0.93881191     0.18600
N1090       N  0.26797989  0.80664973  0.00991858     0.76200
H1091       H  0.31288686  0.84437186  0.01057947     0.10100
C1092       C  0.37108020  0.86928179  0.95675854     0.03800
C1093       C  0.38986882  0.89392577  0.96135296    -0.04900
C1094       C  0.40086521  0.90056120  0.98988693    -0.23300
C1095       C  0.39319576  0.88224063  0.01418366     0.13100
C1096       C  0.37516869  0.85708713  0.00958310    -0.12400
N1097       N  0.35795382  0.86520634  0.92790249     0.64800
H1098       H  0.39577585  0.90807970  0.94258025     0.12600
N1099       N  0.40298943  0.88951799  0.04373255     0.61400
H1100       H  0.36932458  0.84318476  0.02854795     0.08800
O1101       O  0.24783443  0.82477825  0.00247997    -0.40100
O1102       O  0.26748219  0.79513142  0.03566611    -0.39200
O1103       O  0.39678740  0.78822004  0.95528288    -0.39200
O1104       O  0.37312231  0.79633723  0.91358370    -0.36900
O1105       O  0.39129585  0.91114571  0.05744040    -0.37800
O1106       O  0.42596654  0.87727750  0.05430354    -0.34000
O1107       O  0.33136722  0.87328891  0.92378142    -0.35400
O1108       O  0.37458048  0.86118102  0.90551624    -0.39700
C1109       C  0.66641109  0.81292771  0.03306073    -0.13400
C1110       C  0.65245948  0.81554257  0.00515697     0.17000
C1111       C  0.66057531  0.79604470  0.98184271     0.03300
C1112       C  0.68385495  0.77566849  0.98614731    -0.11900
C1113       C  0.69938304  0.77470174  0.01335310    -0.03000
C1114       C  0.68980715  0.79277487  0.03728949     0.02500
C1115       C  0.63196061  0.84086319  0.00020137     0.09400
N1116       N  0.64671405  0.79803328  0.95315944     0.65700
H1117       H  0.69124658  0.76219420  0.96748382     0.18600
N1118       N  0.70442398  0.79171018  0.06566556     0.76200
H1119       H  0.66007296  0.82764455  0.05120745     0.10100
C1120       C  0.60175389  0.83892650  0.00795691     0.03800
C1121       C  0.58372185  0.86425456  0.00608694    -0.04900
C1122       C  0.59520147  0.89212802  0.99680293    -0.23300
C1123       C  0.62567969  0.89389946  0.98887925     0.13100
C1124       C  0.64363533  0.86830382  0.99052273    -0.12400
N1125       N  0.58921062  0.81153883  0.01850028     0.64800
H1126       H  0.56057777  0.86203331  0.01258662     0.12600
N1127       N  0.63887305  0.92132534  0.97926030     0.61400
H1128       H  0.66706086  0.87001049  0.98491021     0.08800
O1129       O  0.69410185  0.77504956  0.08594344    -0.40100
O1130       O  0.72317120  0.81164060  0.07239957    -0.39200
O1131       O  0.65988852  0.81154741  0.93220928    -0.39200
O1132       O  0.62473435  0.78145154  0.94723562    -0.36900
O1133       O  0.65142926  0.93799450  0.99823795    -0.37800
O1134       O  0.64371420  0.92550813  0.95177121    -0.34000
O1135       O  0.58439566  0.80819079  0.04610673    -0.35400
O1136       O  0.57739975  0.79374107  0.00008797    -0.39700
C1137       C  0.32010372  0.16900410  0.96890205    -0.13400
C1138       C  0.33829997  0.16923713  0.99442990     0.17000
C1139       C  0.33431320  0.19207947  0.01587466     0.03300
C1140       C  0.31186188  0.21338003  0.01187064    -0.11900
C1141       C  0.29249520  0.21182926  0.98733051    -0.03000
C1142       C  0.29687371  0.18942660  0.96557674     0.02500
C1143       C  0.36130722  0.14560109  0.99784817     0.09400
N1144       N  0.35118033  0.19260700  0.04298072     0.65700
H1145       H  0.30806636  0.22973352  0.02930629     0.18600
N1146       N  0.27737204  0.18644967  0.94044372     0.76200
H1147       H  0.32349734  0.15239828  0.95164076     0.10100
C1148       C  0.35422849  0.11514785  0.99372778     0.03800
C1149       C  0.37670982  0.09370713  0.99435052    -0.04900
C1150       C  0.40648947  0.10146835  0.00026794    -0.23300
C1151       C  0.41334317  0.13187430  0.00605968     0.13100
C1152       C  0.39095886  0.15355941  0.00387170    -0.12400
N1153       N  0.32413252  0.10537154  0.98984757     0.64800
H1154       H  0.37050187  0.07065939  0.99037558     0.12600
N1155       N  0.44228815  0.14105832  0.01587546     0.61400
H1156       H  0.39683377  0.17679529  0.00712050     0.08800
O1157       O  0.25837385  0.16563100  0.94020559    -0.40100
O1158       O  0.28416060  0.19905508  0.91614345    -0.39200
O1159       O  0.36938797  0.21362499  0.04754933    -0.39200
O1160       O  0.34318915  0.17632923  0.06458941    -0.36900
O1161       O  0.45713197  0.15925515  0.00029131    -0.37800
O1162       O  0.44946491  0.13707727  0.04287628    -0.34000
O1163       O  0.31608717  0.09476453  0.96495861    -0.35400
O1164       O  0.30830909  0.10054093  0.01266639    -0.39700
C1165       C  0.47710043  0.14212349  0.87488598    -0.13400
C1166       C  0.49661904  0.14025341  0.85049656     0.17000
C1167       C  0.51790779  0.11713089  0.84989345     0.03300
C1168       C  0.51875052  0.09602335  0.87305696    -0.11900
C1169       C  0.49919150  0.09787688  0.89747434    -0.03000
C1170       C  0.47824057  0.12130456  0.89828291     0.02500
C1171       C  0.49518158  0.16343241  0.82672699     0.09400
N1172       N  0.53869967  0.11463929  0.82584862     0.65700
H1173       H  0.53506023  0.07825067  0.87212854     0.18600
N1174       N  0.45751287  0.12399875  0.92232185     0.76200
H1175       H  0.46097629  0.16004963  0.87589645     0.10100
C1176       C  0.46936982  0.16751650  0.80919451     0.03800
C1177       C  0.46846464  0.19031618  0.78777165    -0.04900
C1178       C  0.49275612  0.20960341  0.78352879    -0.23300
C1179       C  0.51852244  0.20568854  0.80119890     0.13100
C1180       C  0.51945554  0.18276908  0.82259795    -0.12400
N1181       N  0.44402872  0.14846079  0.81258838     0.64800
H1182       H  0.44856563  0.19316739  0.77436394     0.12600
N1183       N  0.54428523  0.22398999  0.79713407     0.61400
H1184       H  0.53927353  0.18010060  0.83616535     0.08800
O1185       O  0.43333032  0.10962137  0.92128339    -0.40100
O1186       O  0.45984456  0.14583563  0.93996136    -0.39200
O1187       O  0.56503764  0.12384532  0.82949938    -0.39200
O1188       O  0.53290718  0.09746174  0.80424116    -0.36900
O1189       O  0.55360781  0.23951934  0.81877136    -0.37800
O1190       O  0.56171378  0.21842373  0.77573461    -0.34000
O1191       O  0.42203354  0.15739511  0.82765830    -0.35400
O1192       O  0.44087270  0.12643233  0.79528058    -0.39700
C1193       C  0.49456244  0.88110644  0.84472669    -0.13400
C1194       C  0.50369800  0.85239254  0.85325378     0.17000
C1195       C  0.51218736  0.84744432  0.88322567     0.03300
C1196       C  0.51087496  0.87074489  0.90399820    -0.11900
C1197       C  0.50132925  0.89946620  0.89574454    -0.03000
C1198       C  0.49331662  0.90454783  0.86550253     0.02500
C1199       C  0.50569623  0.82834781  0.83033471     0.09400
N1200       N  0.52174901  0.81870073  0.89315082     0.65700
H1201       H  0.51753739  0.86617010  0.92684192     0.18600
N1202       N  0.48340413  0.93311545  0.85544541     0.76200
H1203       H  0.48871067  0.88551259  0.82162917     0.10100
C1204       C  0.48139016  0.82107016  0.81159977     0.03800
C1205       C  0.48464556  0.79930023  0.78932994    -0.04900
C1206       C  0.51149189  0.78377682  0.78591242    -0.23300
C1207       C  0.53576779  0.79094566  0.80462083     0.13100
C1208       C  0.53279560  0.81332652  0.82627494    -0.12400
N1209       N  0.45288039  0.83452002  0.81586275     0.64800
H1210       H  0.46577171  0.79359274  0.77533143     0.12600
N1211       N  0.56393586  0.77657900  0.80117113     0.61400
H1212       H  0.55200941  0.81937737  0.83963603     0.08800
O1213       O  0.45585768  0.93783598  0.85259749    -0.40100
O1214       O  0.50176423  0.95073415  0.84332501    -0.39200
O1215       O  0.54884069  0.81461145  0.89942694    -0.39200
O1216       O  0.50261715  0.79988116  0.90170866    -0.36900
O1217       O  0.58180614  0.78594965  0.78151819    -0.37800
O1218       O  0.57373492  0.76045974  0.82210142    -0.34000
O1219       O  0.44244440  0.85156312  0.79599974    -0.35400
O1220       O  0.43601607  0.82497116  0.83633077    -0.39700
C1221       C  0.50628528  0.87822211  0.14737368    -0.13400
C1222       C  0.49963375  0.84886962  0.13881580     0.17000
C1223       C  0.49312650  0.84303406  0.10851089     0.03300
C1224       C  0.49340797  0.86642692  0.08749343    -0.11900
C1225       C  0.49990327  0.89610925  0.09590675    -0.03000
C1226       C  0.50664931  0.90167034  0.12646305     0.02500
C1227       C  0.49884803  0.82507794  0.16218446     0.09400
N1228       N  0.48519010  0.81366832  0.09883424     0.65700
H1229       H  0.48805770  0.86123133  0.06444063     0.18600
N1230       N  0.51473486  0.93077669  0.13674381     0.76200
H1231       H  0.51144014  0.88297672  0.17058555     0.10100
C1232       C  0.52231890  0.80452110  0.16573173     0.03800
C1233       C  0.52143033  0.78349202  0.18900455    -0.04900
C1234       C  0.49754514  0.78241384  0.20927982    -0.23300
C1235       C  0.47394099  0.80290883  0.20563434     0.13100
C1236       C  0.47491653  0.82407231  0.18237548    -0.12400
N1237       N  0.54786722  0.80552114  0.14674307     0.64800
H1238       H  0.53987421  0.76818473  0.19167514     0.12600
N1239       N  0.44822199  0.80175610  0.22438260     0.61400
H1240       H  0.45669335  0.83968787  0.17986253     0.08800
O1241       O  0.54192747  0.93772837  0.13859375    -0.40100
O1242       O  0.49561690  0.94655237  0.15001596    -0.39200
O1243       O  0.45805404  0.80634552  0.09783077    -0.39200
O1244       O  0.50402220  0.79819100  0.08482858    -0.36900
O1245       O  0.42782954  0.78323839  0.21847389    -0.37800
O1246       O  0.44256282  0.82356310  0.24130111    -0.34000
O1247       O  0.57002231  0.82107287  0.15452077    -0.35400
O1248       O  0.55120201  0.78559684  0.12709453    -0.39700
C1249       C  0.52325672  0.14539436  0.11707569    -0.13400
C1250       C  0.51263092  0.13746978  0.14549530     0.17000
C1251       C  0.50470706  0.10753632  0.15092975     0.03300
C1252       C  0.50512810  0.08673576  0.12754901    -0.11900
C1253       C  0.51351433  0.09493562  0.09831969    -0.03000
C1254       C  0.52408302  0.12443997  0.09362512     0.02500
C1255       C  0.50578047  0.16117840  0.16772327     0.09400
N1256       N  0.49573908  0.09798357  0.18006819     0.65700
H1257       H  0.49806952  0.06412142  0.13231556     0.18600
N1258       N  0.53611751  0.13348170  0.06545575     0.76200
H1259       H  0.52996956  0.16825010  0.11277016     0.10100
C1260       C  0.52810647  0.17649563  0.18387104     0.03800
C1261       C  0.52011099  0.19871781  0.20453441    -0.04900
C1262       C  0.49018915  0.20629372  0.20903433    -0.23300
C1263       C  0.46804355  0.19175989  0.19222041     0.13100
C1264       C  0.47587684  0.16926599  0.17193384    -0.12400
N1265       N  0.55885249  0.16952181  0.17985981     0.64800
H1266       H  0.53725703  0.21022572  0.21708291     0.12600
N1267       N  0.43750561  0.19983990  0.19550564     0.61400
H1268       H  0.45853544  0.15810723  0.15925542     0.08800
O1269       O  0.52003816  0.14786288  0.04737171    -0.40100
O1270       O  0.56395948  0.13302872  0.06165771    -0.39200
O1271       O  0.46840260  0.09478715  0.18577455    -0.39200
O1272       O  0.51478374  0.08652647  0.19734185    -0.36900
O1273       O  0.42590091  0.21814776  0.17753893    -0.37800
O1274       O  0.42214698  0.18893950  0.21646911    -0.34000
O1275       O  0.57476023  0.18624877  0.16368225    -0.35400
O1276       O  0.57126625  0.15156479  0.19764797    -0.39700
C1277       C  0.38900634  0.01300867  0.14916806    -0.13400
C1278       C  0.36232250  0.99726331  0.14564133     0.17000
C1279       C  0.35530287  0.98486515  0.11748198     0.03300
C1280       C  0.37577661  0.98698257  0.09387233    -0.11900
C1281       C  0.40318393  0.00168473  0.09769919    -0.03000
C1282       C  0.40928479  0.01554708  0.12552944     0.02500
C1283       C  0.34173137  0.99486705  0.17138380     0.09400
N1284       N  0.32712731  0.97090029  0.11225409     0.65700
H1285       H  0.37038772  0.97663351  0.07263024     0.18600
N1286       N  0.43547669  0.03318713  0.12990519     0.76200
H1287       H  0.39409859  0.02346802  0.17043853     0.10100
C1288       C  0.33790374  0.96778544  0.18701346     0.03800
C1289       C  0.31616504  0.96559215  0.20940216    -0.04900
C1290       C  0.29866466  0.99028620  0.21693792    -0.23300
C1291       C  0.30420623  0.01797814  0.20301876     0.13100
C1292       C  0.32559050  0.02006581  0.18031437    -0.12400
N1293       N  0.35594225  0.94241420  0.18039058     0.64800
H1294       H  0.31195073  0.94418843  0.21988990     0.12600
N1295       N  0.28742795  0.04386111  0.21093736     0.61400
H1296       H  0.32893822  0.04118397  0.16895171     0.08800
O1297       O  0.45628525  0.02320331  0.14599484    -0.40100
O1298       O  0.43486633  0.06063499  0.12358019    -0.39200
O1299       O  0.30588617  0.98635293  0.10224318    -0.39200
O1300       O  0.32555832  0.94282000  0.11078081    -0.36900
O1301       O  0.26529914  0.05131993  0.19525408    -0.37800
O1302       O  0.29824709  0.06230412  0.22932647    -0.34000
O1303       O  0.38142241  0.94036706  0.19211282    -0.35400
O1304       O  0.34427553  0.91965240  0.16854524    -0.39700
C1305       C  0.67497510  0.94198100  0.82345945    -0.13400
C1306       C  0.65677923  0.96709766  0.82078749     0.17000
C1307       C  0.66075499  0.98648003  0.79638082     0.03300
C1308       C  0.68403659  0.98159881  0.77613910    -0.11900
C1309       C  0.70343396  0.95727942  0.77941059    -0.03000
C1310       C  0.69812120  0.93682072  0.80311722     0.02500
C1311       C  0.63553172  0.97390271  0.84508529     0.09400
N1312       N  0.64208550  0.01194725  0.79255769     0.65700
H1313       H  0.68809098  0.99830950  0.75929980     0.18600
N1314       N  0.71649488  0.91116747  0.80757424     0.76200
H1315       H  0.67181015  0.92678865  0.84207779     0.10100
C1316       C  0.60766543  0.95967269  0.84677950     0.03800
C1317       C  0.58883715  0.96539983  0.87109934    -0.04900
C1318       C  0.59753471  0.98495189  0.89424572    -0.23300
C1319       C  0.62566259  0.99890788  0.89253590     0.13100
C1320       C  0.64431665  0.99338898  0.86800354    -0.12400
N1321       N  0.59837818  0.93925095  0.82403077     0.64800
H1322       H  0.56738509  0.95427085  0.87204633     0.12600
N1323       N  0.63536479  0.01923283  0.91510659     0.61400
H1324       H  0.66592909  0.00417328  0.86694139     0.08800
O1325       O  0.70984907  0.88715918  0.79438765    -0.40100
O1326       O  0.73334735  0.91017470  0.83016634    -0.39200
O1327       O  0.64891181  0.03619924  0.80519290    -0.39200
O1328       O  0.62269773  0.01188375  0.77211519    -0.36900
O1329       O  0.65364974  0.01043731  0.93461391    -0.37800
O1330       O  0.63116079  0.04684843  0.91156843    -0.34000
O1331       O  0.60329297  0.91169861  0.82707827    -0.35400
O1332       O  0.58842098  0.94901119  0.79952053    -0.39700
C1333       C  0.33753138  0.97670790  0.80482450    -0.13400
C1334       C  0.33522134  0.99864022  0.82714699     0.17000
C1335       C  0.31125639  0.01884197  0.82627839     0.03300
C1336       C  0.28927023  0.01575587  0.80431237    -0.11900
C1337       C  0.29095536  0.99319867  0.78257429    -0.03000
C1338       C  0.31555267  0.97376958  0.78265194     0.02500
C1339       C  0.35802958  0.00003875  0.85108850     0.09400
N1340       N  0.30919957  0.04290078  0.84716891     0.65700
H1341       H  0.27037641  0.03077271  0.80452091     0.18600
N1342       N  0.31741642  0.94966883  0.76185071     0.76200
H1343       H  0.35597582  0.96116001  0.80524713     0.10100
C1344       C  0.35158657  0.99154794  0.88076431     0.03800
C1345       C  0.37382410  0.99318127  0.90271190    -0.04900
C1346       C  0.40293673  0.00246558  0.89564437    -0.23300
C1347       C  0.40932329  0.01062827  0.86562747     0.13100
C1348       C  0.38688092  0.00941426  0.84385369    -0.12400
N1349       N  0.32318014  0.97937462  0.88859997     0.64800
H1350       H  0.36845469  0.98599860  0.92522614     0.12600
N1351       N  0.43828118  0.02055237  0.85674759     0.61400
H1352       H  0.39202270  0.01587081  0.82105682     0.08800
O1353       O  0.30647694  0.92461585  0.76871249    -0.40100
O1354       O  0.33520965  0.95151950  0.74009188    -0.39200
O1355       O  0.32102747  0.06765838  0.84072084    -0.39200
O1356       O  0.28991569  0.04181745  0.86765957    -0.36900
O1357       O  0.45467363  0.00335022  0.84169738    -0.37800
O1358       O  0.44445760  0.04802474  0.85780357    -0.34000
O1359       O  0.31803910  0.95213090  0.88353962    -0.35400
O1360       O  0.30677616  0.99326617  0.90675855    -0.39700
C1361       C  0.47306432  0.13231435  0.37163906    -0.13400
C1362       C  0.49014341  0.12600904  0.34597496     0.17000
C1363       C  0.51055047  0.10216170  0.34697641     0.03300
C1364       C  0.51306334  0.08486773  0.37288843    -0.11900
C1365       C  0.49559407  0.09071747  0.39824997    -0.03000
C1366       C  0.47551709  0.11478984  0.39759122     0.02500
C1367       C  0.48816781  0.14607155  0.31945496     0.09400
N1368       N  0.52827961  0.09459573  0.32156609     0.65700
H1369       H  0.52851156  0.06631982  0.37300854     0.18600
N1370       N  0.45666402  0.12089941  0.42258060     0.76200
H1371       H  0.45781876  0.15100986  0.37156781     0.10100
C1372       C  0.46071250  0.15238825  0.30544921     0.03800
C1373       C  0.45886411  0.17552515  0.28439221    -0.04900
C1374       C  0.48407892  0.19231309  0.27653297    -0.23300
C1375       C  0.51192443  0.18451738  0.28879381     0.13100
C1376       C  0.51373690  0.16155408  0.31004601    -0.12400
N1377       N  0.43439828  0.13597789  0.31288131     0.64800
H1378       H  0.43729955  0.18143657  0.27530911     0.12600
N1379       N  0.53816159  0.20123662  0.28185885     0.61400
H1380       H  0.53494911  0.15722043  0.32073128     0.08800
O1381       O  0.46448087  0.14010868  0.44167927    -0.40100
O1382       O  0.43408688  0.10476757  0.42742494    -0.39200
O1383       O  0.55600009  0.09925890  0.32229444    -0.39200
O1384       O  0.51768042  0.07732519  0.30195048    -0.36900
O1385       O  0.55901049  0.18871997  0.26774305    -0.37800
O1386       O  0.54343598  0.22509771  0.29590972    -0.34000
O1387       O  0.41446841  0.14814182  0.32855609    -0.35400
O1388       O  0.42834000  0.11240308  0.29865613    -0.39700
C1389       C  0.46984271  0.87807558  0.35268594    -0.13400
C1390       C  0.49028441  0.85452717  0.35222604     0.17000
C1391       C  0.51102437  0.85166747  0.37574489     0.03300
C1392       C  0.51114388  0.87241581  0.39915112    -0.11900
C1393       C  0.49108227  0.89631720  0.39934128    -0.03000
C1394       C  0.47010979  0.89899105  0.37593123     0.02500
C1395       C  0.48967935  0.83328411  0.32692656     0.09400
N1396       N  0.53181735  0.82760336  0.37637349     0.65700
H1397       H  0.52736983  0.87016258  0.41697056     0.18600
N1398       N  0.44836524  0.92223661  0.37591292     0.76200
H1399       H  0.45369274  0.88029663  0.33479813     0.10100
C1400       C  0.46554579  0.81358026  0.32294737     0.03800
C1401       C  0.46618429  0.79275917  0.29968072    -0.04900
C1402       C  0.49039758  0.79142399  0.27985708    -0.23300
C1403       C  0.51373045  0.81228973  0.28279024     0.13100
C1404       C  0.51326819  0.83297907  0.30634539    -0.12400
N1405       N  0.44117586  0.81320167  0.34350571     0.64800
H1406       H  0.44843417  0.77638044  0.29805962     0.12600
N1407       N  0.53899301  0.81134977  0.26343728     0.61400
H1408       H  0.53170321  0.84841765  0.30900959     0.08800
O1409       O  0.42311963  0.91739149  0.38734594    -0.40100
O1410       O  0.45185836  0.94444977  0.35890858    -0.39200
O1411       O  0.55876724  0.83257301  0.37007064    -0.39200
O1412       O  0.52481494  0.80362365  0.38943450    -0.36900
O1413       O  0.56211780  0.79767270  0.27166214    -0.37800
O1414       O  0.54042121  0.82913220  0.24159442    -0.34000
O1415       O  0.41645578  0.82412071  0.33582200    -0.35400
O1416       O  0.44283174  0.79765641  0.36698729    -0.39700
C1417       C  0.51188369  0.13869682  0.62567011    -0.13400
C1418       C  0.49703547  0.12961598  0.65175713     0.17000
C1419       C  0.48381866  0.10124159  0.65297729     0.03300
C1420       C  0.48575374  0.08225501  0.62836555    -0.11900
C1421       C  0.50034709  0.09115356  0.60194783    -0.03000
C1422       C  0.51342143  0.11985369  0.60065868     0.02500
C1423       C  0.49246821  0.15135147  0.67600815     0.09400
N1424       N  0.46792304  0.09158875  0.67892439     0.65700
H1425       H  0.47515112  0.06053313  0.62981803     0.18600
N1426       N  0.52837984  0.13017378  0.57439344     0.76200
H1427       H  0.52159850  0.16084231  0.62446639     0.10100
C1428       C  0.51560750  0.15950705  0.69564669     0.03800
C1429       C  0.51142505  0.18314735  0.71566035    -0.04900
C1430       C  0.48460080  0.19907922  0.71588826    -0.23300
C1431       C  0.46097398  0.18987648  0.69726098     0.13100
C1432       C  0.46500615  0.16595648  0.67767152    -0.12400
N1433       N  0.54380256  0.14487523  0.69455894     0.64800
H1434       H  0.52980036  0.19025471  0.72968908     0.12600
N1435       N  0.43307911  0.20515805  0.69736743     0.61400
H1436       H  0.44707844  0.15963944  0.66268224     0.08800
O1437       O  0.51433969  0.14576118  0.55559993    -0.40100
O1438       O  0.55644273  0.12934402  0.57327941    -0.39200
O1439       O  0.43986256  0.09300269  0.67921752    -0.39200
O1440       O  0.48114568  0.07616419  0.69842797    -0.36900
O1441       O  0.41164953  0.19445750  0.71217167    -0.37800
O1442       O  0.42796505  0.22471888  0.67772569    -0.34000
O1443       O  0.56531863  0.15726898  0.68127007    -0.35400
O1444       O  0.54867814  0.12296271  0.71158743    -0.39700
C1445       C  0.48480648  0.84550890  0.62209528    -0.13400
C1446       C  0.48396304  0.85702497  0.65127081     0.17000
C1447       C  0.48566462  0.88805560  0.65547704     0.03300
C1448       C  0.48882645  0.90685661  0.63081614    -0.11900
C1449       C  0.48986608  0.89561850  0.60134814    -0.03000
C1450       C  0.48752368  0.86435805  0.59720056     0.02500
C1451       C  0.48632726  0.83619898  0.67685021     0.09400
N1452       N  0.48450878  0.90086239  0.68474795     0.65700
H1453       H  0.49054790  0.93059225  0.63509931     0.18600
N1454       N  0.48914734  0.85107280  0.56821129     0.76200
H1455       H  0.48460780  0.82157434  0.61862179     0.10100
C1456       C  0.46617693  0.81234495  0.68082330     0.03800
C1457       C  0.47281870  0.78973689  0.70130004    -0.04900
C1458       C  0.49930285  0.79044262  0.71791949    -0.23300
C1459       C  0.51855769  0.81512593  0.71527322     0.13100
C1460       C  0.51187062  0.83777634  0.69488462    -0.12400
N1461       N  0.43951115  0.81017508  0.66348410     0.64800
H1462       H  0.45783637  0.77082346  0.70330364     0.12600
N1463       N  0.54659794  0.81590783  0.73031507     0.61400
H1464       H  0.52803404  0.85543125  0.69138667     0.08800
O1465       O  0.46540108  0.84585985  0.55402692    -0.40100
O1466       O  0.51268101  0.83779155  0.56061997    -0.39200
O1467       O  0.50796578  0.91130386  0.69631893    -0.39200
O1468       O  0.45959345  0.90764047  0.69583265    -0.36900
O1469       O  0.56817402  0.80148579  0.71952852    -0.37800
O1470       O  0.55165215  0.83630252  0.74913121    -0.34000
O1471       O  0.43804232  0.79140231  0.64248536    -0.35400
O1472       O  0.41580569  0.82144180  0.67350101    -0.39700
C1473       C  0.38001927  0.00894053  0.35099642    -0.13400
C1474       C  0.35242661  0.99538596  0.35722180     0.17000
C1475       C  0.34794974  0.98295508  0.38599146     0.03300
C1476       C  0.37062028  0.98435751  0.40755115    -0.11900
C1477       C  0.39816015  0.99793998  0.40134732    -0.03000
C1478       C  0.40262117  0.01059872  0.37267722     0.02500
C1479       C  0.32946349  0.99272025  0.33299236     0.09400
N1480       N  0.32041430  0.96894555  0.39388050     0.65700
H1481       H  0.36668562  0.97433268  0.42926632     0.18600
N1482       N  0.42958679  0.02601547  0.36539766     0.76200
H1483       H  0.38436442  0.01790385  0.32893473     0.10100
C1484       C  0.32052789  0.01742051  0.31536907     0.03800
C1485       C  0.29976836  0.01353143  0.29215453    -0.04900
C1486       C  0.28762492  0.98542365  0.28584110    -0.23300
C1487       C  0.29651061  0.96074807  0.30320304     0.13100
C1488       C  0.31731745  0.96453440  0.32633583    -0.12400
N1489       N  0.33178025  0.04673561  0.32107515     0.64800
H1490       H  0.29262657  0.03265798  0.27928449     0.12600
N1491       N  0.28553103  0.93145992  0.29688837     0.61400
H1492       H  0.32471303  0.94504860  0.33855780     0.08800
O1493       O  0.43075379  0.05403041  0.36813772    -0.40100
O1494       O  0.44954739  0.01278693  0.35066182    -0.39200
O1495       O  0.31960545  0.94103749  0.39771142    -0.39200
O1496       O  0.29927557  0.98473433  0.40352926    -0.36900
O1497       O  0.27156346  0.91734355  0.31691102    -0.37800
O1498       O  0.29600511  0.91731967  0.27489128    -0.34000
O1499       O  0.35010727  0.05824174  0.30301421    -0.35400
O1500       O  0.31842142  0.06328149  0.33951087    -0.39700
C1501       C  0.67745206  0.94945374  0.67313490    -0.13400
C1502       C  0.66849678  0.97867803  0.66609094     0.17000
C1503       C  0.68126252  0.00277163  0.68186720     0.03300
C1504       C  0.70346812  0.99746466  0.70327023    -0.11900
C1505       C  0.71250925  0.96836058  0.71017120    -0.03000
C1506       C  0.69910736  0.94421022  0.69521109     0.02500
C1507       C  0.64463726  0.98341314  0.64349225     0.09400
N1508       N  0.67046968  0.03247284  0.67790223     0.65700
H1509       H  0.71297933  0.01609194  0.71542202     0.18600
N1510       N  0.70694845  0.91428329  0.70276855     0.76200
H1511       H  0.66732444  0.93067699  0.66168277     0.10100
C1512       C  0.65094563  0.99326104  0.61421725     0.03800
C1513       C  0.62785678  0.99598339  0.59315900    -0.04900
C1514       C  0.59810048  0.98919926  0.60062205    -0.23300
C1515       C  0.59190750  0.98003156  0.63041355     0.13100
C1516       C  0.61509640  0.97712216  0.65127756    -0.12400
N1517       N  0.68081053  0.99968366  0.60521267     0.64800
H1518       H  0.63341135  0.00325180  0.57072119     0.12600
N1519       N  0.56239587  0.97261527  0.63981786     0.61400
H1520       H  0.61000720  0.96960429  0.67375802     0.08800
O1521       O  0.72948887  0.90235238  0.69097954    -0.40100
O1522       O  0.69357474  0.90114295  0.72383157    -0.39200
O1523       O  0.64867645  0.04121324  0.69338087    -0.39200
O1524       O  0.68646099  0.05149098  0.66461630    -0.36900
O1525       O  0.55408709  0.94568797  0.63958637    -0.37800
O1526       O  0.54727349  0.99163256  0.65400022    -0.34000
O1527       O  0.69624033  0.97933594  0.59343929    -0.35400
O1528       O  0.68906228  0.02650384  0.60261005    -0.39700
C1529       C  0.37925072  0.98402004  0.65064460    -0.13400
C1530       C  0.35190418  0.99710266  0.64337009     0.17000
C1531       C  0.34830548  0.01022838  0.61497763     0.03300
C1532       C  0.37170052  0.00936478  0.59416029    -0.11900
C1533       C  0.39916235  0.99587812  0.60113723    -0.03000
C1534       C  0.40280751  0.98339877  0.63001307     0.02500
C1535       C  0.32738580  0.99610357  0.66564978     0.09400
N1536       N  0.32124577  0.02500198  0.60713893     0.65700
H1537       H  0.36837502  0.01959064  0.57244450     0.18600
N1538       N  0.42954652  0.96836814  0.63826965     0.76200
H1539       H  0.38218023  0.97376337  0.67241167     0.10100
C1540       C  0.30612301  0.97298777  0.66524214     0.03800
C1541       C  0.28477226  0.97103232  0.68796621    -0.04900
C1542       C  0.28361515  0.99204955  0.71128530    -0.23300
C1543       C  0.30472690  0.01560526  0.71141087     0.13100
C1544       C  0.32653714  0.01716771  0.68884164    -0.12400
N1545       N  0.30644324  0.95077712  0.64232768     0.64800
H1546       H  0.26918406  0.95255884  0.68766733     0.12600
N1547       N  0.30386929  0.03867658  0.73343912     0.61400
H1548       H  0.34281483  0.03506974  0.68928798     0.08800
O1549       O  0.43034991  0.94027566  0.63667303    -0.40100
O1550       O  0.44873965  0.98192052  0.65384301    -0.39200
O1551       O  0.31947501  0.05294307  0.61018038    -0.39200
O1552       O  0.30219640  0.01155714  0.59131555    -0.36900
O1553       O  0.28506595  0.05937891  0.73073481    -0.37800
O1554       O  0.32617584  0.04263208  0.75018971    -0.34000
O1555       O  0.31887079  0.92605319  0.64734321    -0.35400
O1556       O  0.28886605  0.95314694  0.62043337    -0.39700
C1557       C  0.60800772  0.00051939  0.15194845    -0.13400
C1558       C  0.63478530  0.98502578  0.14872948     0.17000
C1559       C  0.64264046  0.97369943  0.12024570     0.03300
C1560       C  0.62369338  0.97810636  0.09576983    -0.11900
C1561       C  0.59692204  0.99372320  0.09905691    -0.03000
C1562       C  0.58940540  0.00545470  0.12751193     0.02500
C1563       C  0.65402089  0.98070180  0.17532635     0.09400
N1564       N  0.66976556  0.95771283  0.11571924     0.65700
H1565       H  0.62965677  0.96864784  0.07428230     0.18600
N1566       N  0.56336905  0.02321642  0.13193906     0.76200
H1567       H  0.60126648  0.00874951  0.17367964     0.10100
C1568       C  0.66300395  0.00494817  0.19355309     0.03800
C1569       C  0.68400293  0.00039328  0.21614572    -0.04900
C1570       C  0.69614739  0.97210905  0.22091772    -0.23300
C1571       C  0.68481516  0.94744730  0.20512369     0.13100
C1572       C  0.66374951  0.95185573  0.18257605    -0.12400
N1573       N  0.65272098  0.03463824  0.18816382     0.64800
H1574       H  0.69273482  0.01949063  0.22815543     0.12600
N1575       N  0.69516958  0.91795379  0.21126759     0.61400
H1576       H  0.65554088  0.93275589  0.17018940     0.08800
O1577       O  0.56565213  0.05127204  0.13091495    -0.40100
O1578       O  0.54058783  0.01161402  0.14375514    -0.39200
O1579       O  0.66888016  0.92977074  0.11218781    -0.39200
O1580       O  0.69297737  0.97185118  0.10839657    -0.36900
O1581       O  0.68257923  0.90273702  0.23139561    -0.37800
O1582       O  0.71258916  0.90529198  0.19316390    -0.34000
O1583       O  0.63381656  0.04594649  0.20567668    -0.35400
O1584       O  0.66722663  0.05145147  0.17080255    -0.39700
C1585       C  0.68605370  0.01081146  0.32769466    -0.13400
C1586       C  0.66798091  0.98625838  0.33479317     0.17000
C1587       C  0.67160528  0.95939582  0.31892322     0.03300
C1588       C  0.69228938  0.95775053  0.29554004    -0.11900
C1589       C  0.71016770  0.98238522  0.28800752    -0.03000
C1590       C  0.70703947  0.00916420  0.30443060     0.02500
C1591       C  0.64393119  0.98931397  0.35732811     0.09400
N1592       N  0.65482346  0.93344194  0.32692360     0.65700
H1593       H  0.69488979  0.93696045  0.28347702     0.18600
N1594       N  0.72360210  0.03535509  0.29677087     0.76200
H1595       H  0.68308536  0.03167764  0.33957464     0.10100
C1596       C  0.65024603  0.99146653  0.38801674     0.03800
C1597       C  0.62693664  0.99241217  0.40879802    -0.04900
C1598       C  0.59685094  0.99165420  0.39970073    -0.23300
C1599       C  0.59067873  0.99019469  0.36855016     0.13100
C1600       C  0.61416664  0.98895671  0.34788436    -0.12400
N1601       N  0.68028792  0.99162740  0.39850550     0.64800
H1602       H  0.63265251  0.99336816  0.43230800     0.12600
N1603       N  0.56087984  0.98938505  0.35730657     0.61400
H1604       H  0.60912344  0.98741701  0.32421461     0.08800
O1605       O  0.73851854  0.04854994  0.31675170    -0.40100
O1606       O  0.71735683  0.04914585  0.27298359    -0.39200
O1607       O  0.63319768  0.92519768  0.31087620    -0.39200
O1608       O  0.65965816  0.92059838  0.35157832    -0.36900
O1609       O  0.54949625  0.01289238  0.34682041    -0.37800
O1610       O  0.54891953  0.96450979  0.35157272    -0.34000
O1611       O  0.69249383  0.01604981  0.40550235    -0.35400
O1612       O  0.69244723  0.96738296  0.40595431    -0.39700
C1613       C  0.30190151  0.84195628  0.45974496    -0.13400
C1614       C  0.32210522  0.83910818  0.48354093     0.17000
C1615       C  0.31864694  0.81554172  0.50405446     0.03300
C1616       C  0.29630692  0.79428591  0.49960264    -0.11900
C1617       C  0.27706403  0.79608295  0.47497163    -0.03000
C1618       C  0.27936736  0.82060122  0.45534626     0.02500
C1619       C  0.34699019  0.86049491  0.48690875     0.09400
N1620       N  0.33922915  0.81158580  0.52811273     0.65700
H1621       H  0.29518165  0.77514092  0.51440809     0.18600
N1622       N  0.26032444  0.82308271  0.42988032     0.76200
H1623       H  0.30419155  0.86029890  0.44409759     0.10100
C1624       C  0.37092925  0.86112385  0.46650857     0.03800
C1625       C  0.39523596  0.88001496  0.47178164    -0.04900
C1626       C  0.39559831  0.89911826  0.49659445    -0.23300
C1627       C  0.37113472  0.89930152  0.51639274     0.13100
C1628       C  0.34734836  0.87962538  0.51170727    -0.12400
N1629       N  0.37082251  0.84284264  0.44032254     0.64800
H1630       H  0.41351457  0.88041212  0.45593884     0.12600
N1631       N  0.37024003  0.91913617  0.54143555     0.61400
H1632       H  0.32890183  0.87944332  0.52733835     0.08800
O1633       O  0.26891455  0.81305458  0.40497297    -0.40100
O1634       O  0.23852605  0.84077204  0.43077232    -0.39200
O1635       O  0.33157162  0.81810998  0.55445778    -0.39200
O1636       O  0.36313264  0.79751246  0.52370665    -0.36900
O1637       O  0.35862992  0.94458919  0.53846053    -0.37800
O1638       O  0.37504027  0.90909618  0.56736029    -0.34000
O1639       O  0.36601107  0.85465057  0.41515096    -0.35400
O1640       O  0.38152580  0.81686367  0.44154409    -0.39700
C1641       C  0.68576423  0.83063230  0.45584789    -0.13400
C1642       C  0.67411989  0.83518747  0.48474447     0.17000
C1643       C  0.68528943  0.81787620  0.50864470     0.03300
C1644       C  0.70674978  0.79596145  0.50322390    -0.11900
C1645       C  0.71771469  0.79101866  0.47436948    -0.03000
C1646       C  0.70734904  0.80863797  0.45055035     0.02500
C1647       C  0.64886515  0.85631560  0.48904915     0.09400
N1648       N  0.67478911  0.82193387  0.53851933     0.65700
H1649       H  0.71417797  0.78195635  0.52153496     0.18600
N1650       N  0.71718397  0.80308578  0.42067412     0.76200
H1651       H  0.67708705  0.84325237  0.43711353     0.10100
C1652       C  0.65094782  0.88638553  0.48015142     0.03800
C1653       C  0.62623101  0.90518755  0.48283928    -0.04900
C1654       C  0.59900792  0.89503171  0.49494424    -0.23300
C1655       C  0.59716607  0.86495299  0.50433352     0.13100
C1656       C  0.62178880  0.84591533  0.50094939    -0.12400
N1657       N  0.67835161  0.89849830  0.46925866     0.64800
H1658       H  0.62861892  0.92813682  0.47553502     0.12600
N1659       N  0.57134425  0.85377429  0.51916426     0.61400
H1660       H  0.61968397  0.82278355  0.50770188     0.08800
O1661       O  0.74085134  0.81510164  0.41131029    -0.40100
O1662       O  0.70459215  0.78315916  0.40519237    -0.39200
O1663       O  0.65787332  0.80249514  0.54994373    -0.39200
O1664       O  0.68804837  0.84022025  0.55539176    -0.36900
O1665       O  0.55257997  0.83864141  0.50456081    -0.37800
O1666       O  0.57147056  0.85223841  0.54734620    -0.34000
O1667       O  0.68054308  0.90586659  0.44210357    -0.35400
O1668       O  0.69777722  0.90735342  0.48766007    -0.39700
C1669       C  0.65313307  0.10575717  0.49516618    -0.13400
C1670       C  0.64569555  0.13566334  0.50014640     0.17000
C1671       C  0.61547100  0.14332180  0.50405154     0.03300
C1672       C  0.59353397  0.12109370  0.50357736    -0.11900
C1673       C  0.60084943  0.09093674  0.49899107    -0.03000
C1674       C  0.63122790  0.08347212  0.49440692     0.02500
C1675       C  0.66947927  0.15873658  0.49909873     0.09400
N1676       N  0.60663032  0.17356602  0.50888159     0.65700
H1677       H  0.57059301  0.12765428  0.50708192     0.18600
N1678       N  0.64031671  0.05369658  0.48761296     0.76200
H1679       H  0.67610224  0.09971146  0.49095635     0.10100
C1680       C  0.69487056  0.15740144  0.51774394     0.03800
C1681       C  0.71635625  0.18012984  0.51652087    -0.04900
C1682       C  0.71306322  0.20424509  0.49687457    -0.23300
C1683       C  0.68837640  0.20481428  0.47725985     0.13100
C1684       C  0.66705576  0.18208000  0.47840036    -0.12400
N1685       N  0.69837385  0.13401761  0.53917300     0.64800
H1686       H  0.73463771  0.17977769  0.53229319     0.12600
N1687       N  0.68447956  0.22850609  0.45617481     0.61400
H1688       H  0.64837369  0.18276865  0.46307095     0.08800
O1689       O  0.65200715  0.03790007  0.50780430    -0.40100
O1690       O  0.64298201  0.04595954  0.46061200    -0.39200
O1691       O  0.59344335  0.18751114  0.48824779    -0.39200
O1692       O  0.60582117  0.18368549  0.53520175    -0.36900
O1693       O  0.69500142  0.22574954  0.43016347    -0.37800
O1694       O  0.66497977  0.24815716  0.46100597    -0.34000
O1695       O  0.71748477  0.11393139  0.53460145    -0.35400
O1696       O  0.68745849  0.13705208  0.56499194    -0.39700
C1697       C  0.37907667  0.14398773  0.51758760    -0.13400
C1698       C  0.34968580  0.13384568  0.51338732     0.17000
C1699       C  0.34491545  0.10334067  0.50744483     0.03300
C1700       C  0.36914980  0.08402053  0.50462561    -0.11900
C1701       C  0.39873016  0.09397853  0.50852372    -0.03000
C1702       C  0.40341783  0.12436038  0.51593158     0.02500
C1703       C  0.32463585  0.15566148  0.51240255     0.09400
N1704       N  0.31546468  0.09139401  0.50492592     0.65700
H1705       H  0.36447481  0.06083271  0.49954812     0.18600
N1706       N  0.43243827  0.13555267  0.52287646     0.76200
H1707       H  0.38329160  0.16741150  0.52183711     0.10100
C1708       C  0.32004030  0.17688194  0.53528417     0.03800
C1709       C  0.29881107  0.19941307  0.53147082    -0.04900
C1710       C  0.28188850  0.20147889  0.50515543    -0.23300
C1711       C  0.28550751  0.17966222  0.48281396     0.13100
C1712       C  0.30666664  0.15699258  0.48663522    -0.12400
N1713       N  0.33723936  0.17641563  0.56218872     0.64800
H1714       H  0.29640631  0.21625402  0.54871027     0.12600
N1715       N  0.27036533  0.18203435  0.45482570     0.61400
H1716       H  0.31043805  0.14152286  0.46841736     0.08800
O1717       O  0.44152157  0.13471617  0.54958506    -0.40100
O1718       O  0.44590911  0.15176785  0.50416576    -0.39200
O1719       O  0.30623238  0.08226706  0.47986846    -0.39200
O1720       O  0.30157770  0.08403428  0.52833735    -0.36900
O1721       O  0.28138247  0.19812572  0.43444602    -0.37800
O1722       O  0.25040359  0.16325854  0.44829226    -0.34000
O1723       O  0.35690848  0.19617197  0.56632234    -0.35400
O1724       O  0.32803744  0.16137752  0.58420068    -0.39700
C1725       C  0.80506163  0.99568457  0.65984934    -0.13400
C1726       C  0.82293308  0.97149663  0.65117562     0.17000
C1727       C  0.81812745  0.94349788  0.66484112     0.03300
C1728       C  0.79716372  0.94066214  0.68786113    -0.11900
C1729       C  0.78067123  0.96527183  0.69786328    -0.03000
C1730       C  0.78423097  0.99295024  0.68313652     0.02500
C1731       C  0.84838124  0.97673206  0.63033727     0.09400
N1732       N  0.83495834  0.91788437  0.65621613     0.65700
H1733       H  0.79476723  0.91931144  0.69904226     0.18600
N1734       N  0.76922285  0.01918149  0.69321452     0.76200
H1735       H  0.80889421  0.01748333  0.65007595     0.10100
C1736       C  0.84421431  0.98970344  0.60194676     0.03800
C1737       C  0.86877415  0.99545361  0.58349789    -0.04900
C1738       C  0.89806762  0.98867676  0.59256492    -0.23300
C1739       C  0.90227792  0.97636116  0.62144234     0.13100
C1740       C  0.87756999  0.97059419  0.63989268    -0.12400
N1741       N  0.81506443  0.99655558  0.59114925     0.64800
H1742       H  0.86467525  0.00508216  0.56164853     0.12600
N1743       N  0.93127981  0.96902388  0.63231757     0.61400
H1744       H  0.88129355  0.96157282  0.66206235     0.08800
O1745       O  0.77597209  0.03035231  0.71823576    -0.40100
O1746       O  0.75459837  0.03459602  0.67471459    -0.39200
O1747       O  0.85490178  0.90809220  0.67349896    -0.39200
O1748       O  0.82542383  0.90145999  0.63536340    -0.36900
O1749       O  0.94505963  0.98750870  0.64855693    -0.37800
O1750       O  0.94000125  0.94228697  0.63133209    -0.34000
O1751       O  0.80685481  0.02343603  0.58969291    -0.35400
O1752       O  0.80033873  0.97679011  0.57747078    -0.39700
C1753       C  0.12159398  0.00055202  0.64264662    -0.13400
C1754       C  0.14999911  0.99365901  0.63165796     0.17000
C1755       C  0.15372824  0.98809450  0.60101996     0.03300
C1756       C  0.12920234  0.98948888  0.58182579    -0.11900
C1757       C  0.10041514  0.99626782  0.59250970    -0.03000
C1758       C  0.09682852  0.00182815  0.62349625     0.02500
C1759       C  0.17485989  0.98987690  0.65297509     0.09400
N1760       N  0.18224946  0.98057029  0.58909904     0.65700
H1761       H  0.13289274  0.98485023  0.55833417     0.18600
N1762       N  0.06841205  0.00879297  0.63600861     0.76200
H1763       H  0.11856403  0.00449011  0.66637466     0.10100
C1764       C  0.19247797  0.01420662  0.66234001     0.03800
C1765       C  0.21320021  0.01043612  0.68552136    -0.04900
C1766       C  0.21611584  0.98277724  0.69989090    -0.23300
C1767       C  0.19944572  0.95813459  0.68949222     0.13100
C1768       C  0.17917443  0.96181209  0.66601761    -0.12400
N1769       N  0.18810452  0.04322747  0.64991122     0.64800
H1770       H  0.22552904  0.02961312  0.69368402     0.12600
N1771       N  0.20210787  0.92949002  0.70329994     0.61400
H1772       H  0.16577454  0.94297178  0.65881412     0.08800
O1773       O  0.06232725  0.03552674  0.64239318    -0.40100
O1774       O  0.05240452  0.98805382  0.64641372    -0.39200
O1775       O  0.18815720  0.95363536  0.58344512    -0.39200
O1776       O  0.19856727  0.00089765  0.57839068    -0.36900
O1777       O  0.21989497  0.91061893  0.69245574    -0.37800
O1778       O  0.18254496  0.92099194  0.72170518    -0.34000
O1779       O  0.17169862  0.06169040  0.66335941    -0.35400
O1780       O  0.20460365  0.05207823  0.62885041    -0.39700
C1781       C  0.12349874  0.97247448  0.35233316    -0.13400
C1782       C  0.15097512  0.98506151  0.36057673     0.17000
C1783       C  0.15285297  0.00211480  0.38691890     0.03300
C1784       C  0.12759355  0.00612399  0.40462337    -0.11900
C1785       C  0.10007956  0.99327127  0.39676205    -0.03000
C1786       C  0.09810788  0.97637310  0.37015482     0.02500
C1787       C  0.17651310  0.98296571  0.33978540     0.09400
N1788       N  0.18047453  0.01490092  0.39638680     0.65700
H1789       H  0.12968971  0.01908427  0.42499628     0.18600
N1790       N  0.07101354  0.96194780  0.36155534     0.76200
H1791       H  0.12165673  0.95986427  0.33172725     0.10100
C1792       C  0.18837954  0.95523077  0.33089097     0.03800
C1793       C  0.20953157  0.95411129  0.30789206    -0.04900
C1794       C  0.21916068  0.98029303  0.29373456    -0.23300
C1795       C  0.20763323  0.00802033  0.30290499     0.13100
C1796       C  0.18683255  0.00919187  0.32611541    -0.12400
N1797       N  0.17850260  0.92802915  0.34436963     0.64800
H1798       H  0.21729807  0.93263245  0.30003763     0.12600
N1799       N  0.21426401  0.03469364  0.28662828     0.61400
H1800       H  0.17714100  0.03051106  0.33207338     0.08800
O1801       O  0.06802693  0.93431344  0.36613981    -0.40100
O1802       O  0.05356730  0.97491135  0.34366383    -0.39200
O1803       O  0.18407768  0.04281708  0.39513114    -0.39200
O1804       O  0.19834037  0.99934688  0.41156692    -0.36900
O1805       O  0.19930806  0.04090170  0.26354599    -0.37800
O1806       O  0.23037739  0.05456625  0.29843843    -0.34000
O1807       O  0.16054249  0.91134973  0.33044714    -0.35400
O1808       O  0.19219805  0.91792315  0.36682772    -0.39700
C1809       C  0.87729739  0.98610226  0.34722593    -0.13400
C1810       C  0.84926286  0.99586495  0.35675094     0.17000
C1811       C  0.84591376  0.00771011  0.38563068     0.03300
C1812       C  0.87044560  0.00892241  0.40481268    -0.11900
C1813       C  0.89864437  0.99855727  0.39573750    -0.03000
C1814       C  0.90200659  0.98748108  0.36628925     0.02500
C1815       C  0.82375896  0.99272902  0.33627262     0.09400
N1816       N  0.81762786  0.01788585  0.39608215     0.65700
H1817       H  0.86723130  0.01791962  0.42707992     0.18600
N1818       N  0.92992658  0.97657046  0.35562538     0.76200
H1819       H  0.87991286  0.97703050  0.32490175     0.10100
C1820       C  0.81400308  0.01698993  0.31888794     0.03800
C1821       C  0.79194197  0.01257620  0.29727432    -0.04900
C1822       C  0.77929381  0.98433067  0.29291985    -0.23300
C1823       C  0.78918923  0.95998484  0.31008161     0.13100
C1824       C  0.81115509  0.96437871  0.33185877    -0.12400
N1825       N  0.82818830  0.04549263  0.32104957     0.64800
H1826       H  0.78588803  0.03088204  0.28264756     0.12600
N1827       N  0.77946658  0.93032360  0.30329568     0.61400
H1828       H  0.81932828  0.94542913  0.34447586     0.08800
O1829       O  0.94533370  0.99260256  0.33829921    -0.40100
O1830       O  0.93582909  0.94915426  0.35802487    -0.39200
O1831       O  0.80260881  0.00149579  0.41341605    -0.39200
O1832       O  0.81125608  0.04521546  0.39398888    -0.36900
O1833       O  0.79502035  0.91413342  0.28632167    -0.37800
O1834       O  0.75354261  0.92202886  0.31037098    -0.34000
O1835       O  0.85124167  0.05062768  0.30573898    -0.35400
O1836       O  0.81443903  0.06700815  0.33282935    -0.39700
C1837       C  0.14771332  0.88038643  0.47450959    -0.13400
C1838       C  0.13959347  0.85095152  0.48134272     0.17000
C1839       C  0.11064722  0.84519509  0.49194371     0.03300
C1840       C  0.09043934  0.86876704  0.49572842    -0.11900
C1841       C  0.09818178  0.89844921  0.48856550    -0.03000
C1842       C  0.12749142  0.90404473  0.47795261     0.02500
C1843       C  0.16205577  0.82679988  0.47827109     0.09400
N1844       N  0.10117247  0.81538295  0.49822086     0.65700
H1845       H  0.06830123  0.86359658  0.50388786     0.18600
N1846       N  0.13711453  0.93341566  0.46998132     0.76200
H1847       H  0.17000467  0.88504844  0.46642852     0.10100
C1848       C  0.16826506  0.81368499  0.45031741     0.03800
C1849       C  0.19081080  0.79224379  0.44783123    -0.04900
C1850       C  0.20806913  0.78409921  0.47263345    -0.23300
C1851       C  0.20189297  0.79710938  0.50069614     0.13100
C1852       C  0.17882978  0.81813217  0.50332243    -0.12400
N1853       N  0.15232489  0.82242372  0.42411318     0.64800
H1854       H  0.19548306  0.78235988  0.42622306     0.12600
N1855       N  0.21863754  0.78916544  0.52668381     0.61400
H1856       H  0.17435209  0.82817810  0.52490286     0.08800
O1857       O  0.13785647  0.94082447  0.44275560    -0.40100
O1858       O  0.15102729  0.94898438  0.48894530    -0.39200
O1859       O  0.09908519  0.80678378  0.52501429    -0.39200
O1860       O  0.08936464  0.80001148  0.47772561    -0.36900
O1861       O  0.23875109  0.80662982  0.53583520    -0.37800
O1862       O  0.20822448  0.76990514  0.54445247    -0.34000
O1863       O  0.16460978  0.83967787  0.40549629    -0.35400
O1864       O  0.12927858  0.80812377  0.41655367    -0.39700
C1865       C  0.84580438  0.88281962  0.48634107    -0.13400
C1866       C  0.85447256  0.85280397  0.48429202     0.17000
C1867       C  0.88517379  0.84615138  0.48458821     0.03300
C1868       C  0.90633307  0.86917496  0.48690910    -0.11900
C1869       C  0.89784001  0.89933377  0.48940210    -0.03000
C1870       C  0.86687789  0.90590863  0.48925650     0.02500
C1871       C  0.83128462  0.82890433  0.48104411     0.09400
N1872       N  0.89530438  0.81596251  0.48366082     0.65700
H1873       H  0.92967806  0.86315028  0.48704237     0.18600
N1874       N  0.85616626  0.93575983  0.49244069     0.76200
H1875       H  0.82237860  0.88848556  0.48558425     0.10100
C1876       C  0.80744999  0.82612666  0.50148329     0.03800
C1877       C  0.78577072  0.80390435  0.49746037    -0.04900
C1878       C  0.78696676  0.78418793  0.47317674    -0.23300
C1879       C  0.81036076  0.78721105  0.45212391     0.13100
C1880       C  0.83233382  0.80931592  0.45649249    -0.12400
N1881       N  0.80556612  0.84492670  0.52720357     0.64800
H1882       H  0.76833665  0.80144971  0.51397771     0.12600
N1883       N  0.81159775  0.76881422  0.42579264     0.61400
H1884       H  0.84986035  0.81190773  0.44005130     0.08800
O1885       O  0.84997275  0.94552298  0.51817233    -0.40100
O1886       O  0.84707177  0.94971918  0.46969247    -0.39200
O1887       O  0.90815447  0.80637396  0.46048980    -0.39200
O1888       O  0.89712133  0.80128375  0.50767857    -0.36900
O1889       O  0.78803956  0.76191821  0.41196467    -0.37800
O1890       O  0.83642968  0.76160505  0.41473139    -0.34000
O1891       O  0.78593276  0.86500386  0.52819626    -0.35400
O1892       O  0.81867902  0.83729531  0.55095687    -0.39700
C1893       C  0.81484649  0.17481231  0.46866625    -0.13400
C1894       C  0.82669674  0.16226073  0.49500805     0.17000
C1895       C  0.81546890  0.17209817  0.52283860     0.03300
C1896       C  0.79437239  0.19512942  0.52401341    -0.11900
C1897       C  0.78302138  0.20790488  0.49781945    -0.03000
C1898       C  0.79280081  0.19711452  0.46997426     0.02500
C1899       C  0.85167391  0.14013398  0.49355338     0.09400
N1900       N  0.82431138  0.15793534  0.55005313     0.65700
H1901       H  0.78633702  0.20282155  0.54550884     0.18600
N1902       N  0.78042794  0.20866469  0.44294994     0.76200
H1903       H  0.82298326  0.16757432  0.44705889     0.10100
C1904       C  0.84881407  0.11258471  0.47847595     0.03800
C1905       C  0.87223393  0.09183335  0.47905337    -0.04900
C1906       C  0.89911440  0.09793758  0.49409407    -0.23300
C1907       C  0.90235336  0.12590479  0.50842387     0.13100
C1908       C  0.87880042  0.14657626  0.50803078    -0.12400
N1909       N  0.82191250  0.10484371  0.46324978     0.64800
H1910       H  0.86931013  0.07072288  0.46756060     0.12600
N1911       N  0.92891702  0.13319581  0.52453200     0.61400
H1912       H  0.88158560  0.16773066  0.51946178     0.08800
O1913       O  0.75606294  0.19845078  0.43324276    -0.40100
O1914       O  0.79240374  0.23075379  0.43019809    -0.39200
O1915       O  0.83998861  0.17206485  0.56874541    -0.39200
O1916       O  0.81174001  0.13393919  0.55785712    -0.36900
O1917       O  0.94809157  0.15030316  0.51297353    -0.37800
O1918       O  0.93409730  0.12110830  0.54949640    -0.34000
O1919       O  0.82079146  0.10704270  0.43512944    -0.35400
O1920       O  0.80246311  0.08952453  0.47668782    -0.39700
C1921       C  0.15073616  0.11538530  0.50270703    -0.13400
C1922       C  0.14215261  0.14529245  0.49961281     0.17000
C1923       C  0.11177836  0.15178449  0.49503486     0.03300
C1924       C  0.09081835  0.12852450  0.49339433    -0.11900
C1925       C  0.09921809  0.09838445  0.49671246    -0.03000
C1926       C  0.12982641  0.09208288  0.50152199     0.02500
C1927       C  0.16560350  0.16894106  0.49887952     0.09400
N1928       N  0.10169956  0.18195208  0.49287310     0.65700
H1929       H  0.06769034  0.13430577  0.48978799     0.18600
N1930       N  0.14034642  0.06223982  0.50524403     0.76200
H1931       H  0.17406856  0.10995414  0.50554403     0.10100
C1932       C  0.18648658  0.17218857  0.52228320     0.03800
C1933       C  0.21008052  0.19255712  0.51953683    -0.04900
C1934       C  0.21322620  0.21035682  0.49394009    -0.23300
C1935       C  0.19232305  0.20723084  0.47046998     0.13100
C1936       C  0.16877911  0.18670844  0.47319416    -0.12400
N1937       N  0.18317142  0.15603990  0.54962915     0.64800
H1938       H  0.22544994  0.19535889  0.53801418     0.12600
N1939       N  0.19546647  0.22357042  0.44315946     0.61400
H1940       H  0.15347597  0.18387252  0.45465500     0.08800
O1941       O  0.14559667  0.05257455  0.53122954    -0.40100
O1942       O  0.15054059  0.04836815  0.48293378    -0.39200
O1943       O  0.09113776  0.19138511  0.46848576    -0.39200
O1944       O  0.09788892  0.19696269  0.51644029    -0.36900
O1945       O  0.21547984  0.21614286  0.42483910    -0.37800
O1946       O  0.17440884  0.23996276  0.43431718    -0.34000
O1947       O  0.20053929  0.13468594  0.55531603    -0.35400
O1948       O  0.16781305  0.16715313  0.57044755    -0.39700
C1949       C  0.00958852  0.64531403  0.12016248    -0.13400
C1950       C  0.99289880  0.63657021  0.14526648     0.17000
C1951       C  0.97752307  0.60921689  0.14476924     0.03300
C1952       C  0.97950306  0.59083867  0.11971992    -0.11900
C1953       C  0.99651357  0.59913759  0.09463198    -0.03000
C1954       C  0.01139876  0.62692712  0.09480664     0.02500
C1955       C  0.98929795  0.65746406  0.17053801     0.09400
N1956       N  0.95999899  0.59963524  0.16968437     0.65700
H1957       H  0.96760390  0.56974531  0.11999050     0.18600
N1958       N  0.02874347  0.63660606  0.06983041     0.76200
H1959       H  0.02079504  0.66676718  0.12004376     0.10100
C1960       C  0.01362598  0.66657244  0.18828979     0.03800
C1961       C  0.00957538  0.68848532  0.21020237    -0.04900
C1962       C  0.98178965  0.70207681  0.21409528    -0.23300
C1963       C  0.95734327  0.69245306  0.19685306     0.13100
C1964       C  0.96117286  0.66999176  0.17554929    -0.12400
N1965       N  0.04278556  0.65488815  0.18333611     0.64800
H1966       H  0.02868023  0.69645629  0.22264078     0.12600
N1967       N  0.92888519  0.70636284  0.19966336     0.61400
H1968       H  0.94241546  0.66337970  0.16176966     0.08800
O1969       O  0.05674445  0.63453135  0.07087595    -0.40100
O1970       O  0.01689680  0.65305713  0.05027158    -0.39200
O1971       O  0.93197769  0.60109336  0.16816123    -0.39200
O1972       O  0.97187704  0.58391862  0.18982058    -0.36900
O1973       O  0.90924465  0.69440606  0.21592957    -0.37800
O1974       O  0.92142681  0.72638095  0.18128505    -0.34000
O1975       O  0.06099719  0.66949743  0.16754833    -0.35400
O1976       O  0.05225245  0.63408359  0.19978187    -0.39700
C1977       C  0.98548599  0.80749836  0.33580061    -0.13400
C1978       C  0.00994421  0.82673894  0.33207871     0.17000
C1979       C  0.03055052  0.82112248  0.30908291     0.03300
C1980       C  0.02487155  0.79822374  0.28857989    -0.11900
C1981       C  0.99942479  0.78013733  0.29118916    -0.03000
C1982       C  0.98018807  0.78415073  0.31566149     0.02500
C1983       C  0.01309231  0.85226960  0.35274427     0.09400
N1984       N  0.05735174  0.83818469  0.30642228     0.65700
H1985       H  0.03983289  0.79521177  0.26979824     0.18600
N1986       N  0.95424607  0.76600599  0.31930986     0.76200
H1987       H  0.96987851  0.81127361  0.35389560     0.10100
C1988       C  0.00664884  0.88180306  0.34394806     0.03800
C1989       C  0.00452322  0.90432160  0.36559874    -0.04900
C1990       C  0.00925035  0.89811205  0.39605904    -0.23300
C1991       C  0.01792698  0.86876895  0.40427201     0.13100
C1992       C  0.01930115  0.84627102  0.38271988    -0.12400
N1993       N  0.00110041  0.88917172  0.31336396     0.64800
H1994       H  0.99852590  0.92663347  0.35848540     0.12600
N1995       N  0.02641000  0.86139295  0.43414964     0.61400
H1996       H  0.02485202  0.82373025  0.38954037     0.08800
O1997       O  0.95477993  0.74476727  0.33784353    -0.40100
O1998       O  0.92951657  0.77524146  0.30967300    -0.39200
O1999       O  0.07977267  0.83071793  0.32168769    -0.39200
O2000       O  0.06088533  0.85510028  0.28413058    -0.36900
O2001       O  0.00774358  0.84897830  0.45122681    -0.37800
O2002       O  0.05374245  0.86002720  0.44047693    -0.34000
O2003       O  0.97461105  0.88952298  0.30395906    -0.35400
O2004       O  0.02091631  0.90290823  0.29878797    -0.39700
C2005       C  0.98011388  0.32228200  0.81791961    -0.13400
C2006       C  0.00404790  0.34230889  0.81983332     0.17000
C2007       C  0.02735202  0.34036715  0.79870522     0.03300
C2008       C  0.02717509  0.31739168  0.77730310    -0.11900
C2009       C  0.00414664  0.29620669  0.77689689    -0.03000
C2010       C  0.98001793  0.29935315  0.79677674     0.02500
C2011       C  0.00510837  0.36304910  0.84569896     0.09400
N2012       N  0.05170434  0.36094259  0.79930771     0.65700
H2013       H  0.04596421  0.31496163  0.76229479     0.18600
N2014       N  0.95600611  0.27834195  0.79683220     0.76200
H2015       H  0.96212844  0.32342371  0.83403275     0.10100
C2016       C  0.98233423  0.38408765  0.85038582     0.03800
C2017       C  0.98226925  0.40142164  0.87634996    -0.04900
C2018       C  0.00428159  0.39797462  0.89837625    -0.23300
C2019       C  0.02671663  0.37643563  0.89418793     0.13100
C2020       C  0.02706768  0.35928682  0.86784001    -0.12400
N2021       N  0.95929170  0.38839923  0.82876307     0.64800
H2022       H  0.96501102  0.41807540  0.87917380     0.12600
N2023       N  0.04965429  0.37232226  0.91595266     0.61400
H2024       H  0.04420241  0.34255639  0.86491217     0.08800
O2025       O  0.93215711  0.28467607  0.78335114    -0.40100
O2026       O  0.95624621  0.25695833  0.81520751    -0.39200
O2027       O  0.07617415  0.35307311  0.81069303    -0.39200
O2028       O  0.05077023  0.38399074  0.78311225    -0.36900
O2029       O  0.04656485  0.35256735  0.93584223    -0.37800
O2030       O  0.07491144  0.38402845  0.91182897    -0.34000
O2031       O  0.93348472  0.37846898  0.83398017    -0.35400
O2032       O  0.96298919  0.40725410  0.80812099    -0.39700
C2033       C  0.02535117  0.14623277  0.60986326    -0.13400
C2034       C  0.00987441  0.14343855  0.63682624     0.17000
C2035       C  0.99286269  0.11754473  0.64237318     0.03300
C2036       C  0.99126317  0.09506077  0.62066063    -0.11900
C2037       C  0.00628817  0.09807343  0.59328972    -0.03000
C2038       C  0.02376236  0.12389162  0.58813463     0.02500
C2039       C  0.01181699  0.16801659  0.65867828     0.09400
N2040       N  0.97747189  0.11358649  0.67005436     0.65700
H2041       H  0.97789975  0.07536291  0.62507744     0.18600
N2042       N  0.04100768  0.12730446  0.56150342     0.76200
H2043       H  0.03877150  0.16594762  0.60566583     0.10100
C2044       C  0.03788229  0.17261957  0.67548851     0.03800
C2045       C  0.03907028  0.19582693  0.69629690    -0.04900
C2046       C  0.01485811  0.21520221  0.70023034    -0.23300
C2047       C  0.98947076  0.21177525  0.68194140     0.13100
C2048       C  0.98804360  0.18804132  0.66150585    -0.12400
N2049       N  0.06290327  0.15323146  0.67238830     0.64800
H2050       H  0.05861889  0.19805963  0.71037527     0.12600
N2051       N  0.96449856  0.23123486  0.68470731     0.61400
H2052       H  0.96821826  0.18504424  0.64798292     0.08800
O2053       O  0.06819693  0.12027208  0.56187599    -0.40100
O2054       O  0.03128069  0.14354760  0.54062923    -0.39200
O2055       O  0.94964548  0.11731668  0.67096586    -0.39200
O2056       O  0.99023511  0.10009248  0.69124259    -0.36900
O2057       O  0.94279634  0.22351497  0.70089392    -0.37800
O2058       O  0.96094210  0.25164475  0.66558864    -0.34000
O2059       O  0.08469868  0.16122866  0.65645714    -0.35400
O2060       O  0.06554957  0.13106899  0.68959621    -0.39700
C2061       C  0.99730005  0.66285430  0.79994696    -0.13400
C2062       C  0.01927599  0.65872592  0.82183737     0.17000
C2063       C  0.04588807  0.67522872  0.82012327     0.03300
C2064       C  0.04952064  0.69662724  0.79762187    -0.11900
C2065       C  0.02694070  0.70212394  0.77656647    -0.03000
C2066       C  0.00076853  0.68454341  0.77748415     0.02500
C2067       C  0.01453560  0.63660879  0.84595738     0.09400
N2068       N  0.06905340  0.67110388  0.84164730     0.65700
H2069       H  0.06960121  0.71011966  0.79745208     0.18600
N2070       N  0.97653884  0.68992282  0.75751482     0.76200
H2071       H  0.97687275  0.64995229  0.80099950     0.10100
C2072       C  0.00243526  0.64471933  0.87385519     0.03800
C2073       C  0.99921208  0.62321334  0.89644346    -0.04900
C2074       C  0.00782411  0.59340167  0.89176410    -0.23300
C2075       C  0.01973790  0.58546537  0.86345945     0.13100
C2076       C  0.02289952  0.60702461  0.84101014    -0.12400
N2077       N  0.99331175  0.67470072  0.87957452     0.64800
H2078       H  0.98988788  0.62995683  0.91774073     0.12600
N2079       N  0.03006158  0.55597052  0.85739857     0.61400
H2080       H  0.03242598  0.60070612  0.81965645     0.08800
O2081       O  0.95794488  0.71004159  0.76377772    -0.40100
O2082       O  0.96959071  0.67014715  0.73864002    -0.39200
O2083       O  0.09127297  0.65523447  0.83507163    -0.39200
O2084       O  0.07007494  0.68760742  0.86449428    -0.36900
O2085       O  0.01385975  0.53837734  0.84246939    -0.37800
O2086       O  0.05727713  0.55002265  0.86098652    -0.34000
O2087       O  0.96616403  0.68147034  0.87712756    -0.35400
O2088       O  0.01073731  0.69220400  0.89314900    -0.39700
C2089       C  0.98225009  0.85025186  0.61191317    -0.13400
C2090       C  0.00482193  0.85082974  0.63364741     0.17000
C2091       C  0.02428190  0.87561825  0.63503023     0.03300
C2092       C  0.02098137  0.89917892  0.61482523    -0.11900
C2093       C  0.99887277  0.89829013  0.59276544    -0.03000
C2094       C  0.97916014  0.87377699  0.59148742     0.02500
C2095       C  0.00839370  0.82523471  0.65430663     0.09400
N2096       N  0.04765709  0.87711187  0.65669585     0.65700
H2097       H  0.03640118  0.91782698  0.61577064     0.18600
N2098       N  0.95576892  0.87274497  0.56976744     0.76200
H2099       H  0.96720135  0.83134552  0.61063166     0.10100
C2100       C  0.98601578  0.81744889  0.67501515     0.03800
C2101       C  0.99156092  0.79534607  0.69636693    -0.04900
C2102       C  0.01909387  0.78075870  0.69747952    -0.23300
C2103       C  0.04075818  0.78713925  0.67564395     0.13100
C2104       C  0.03515726  0.80911919  0.65410025    -0.12400
N2105       N  0.95847962  0.83329926  0.67616558     0.64800
H2106       H  0.97493811  0.79082888  0.71337365     0.12600
N2107       N  0.06917385  0.77294481  0.67614744     0.61400
H2108       H  0.05223775  0.81442893  0.63781679     0.08800
O2109       O  0.95755282  0.85506195  0.54787914    -0.40100
O2110       O  0.93488762  0.89152504  0.57077808    -0.39200
O2111       O  0.07391625  0.87079772  0.64894129    -0.39200
O2112       O  0.04341245  0.89112334  0.68079105    -0.36900
O2113       O  0.07437528  0.75214891  0.65786416    -0.37800
O2114       O  0.09067925  0.78570513  0.68912693    -0.34000
O2115       O  0.93525038  0.82123654  0.66578033    -0.35400
O2116       O  0.95609428  0.85551031  0.69334489    -0.39700
C2117       C  0.17101139  0.67312826  0.44601850    -0.13400
C2118       C  0.15565548  0.67294078  0.47327314     0.17000
C2119       C  0.16199807  0.69506944  0.49473454     0.03300
C2120       C  0.18431727  0.71623648  0.48912958    -0.11900
C2121       C  0.20069824  0.71564081  0.46244566    -0.03000
C2122       C  0.19343813  0.69414689  0.44046619     0.02500
C2123       C  0.13462585  0.64823311  0.47946082     0.09400
N2124       N  0.14643741  0.69589712  0.52257525     0.65700
H2125       H  0.18992419  0.73208452  0.50643199     0.18600
N2126       N  0.20899283  0.69301647  0.41259707     0.76200
H2127       H  0.16620411  0.65623624  0.42932696     0.10100
C2128       C  0.10802271  0.64526549  0.46312526     0.03800
C2129       C  0.08952135  0.62064680  0.46801502    -0.04900
C2130       C  0.09723762  0.59824548  0.48859759    -0.23300
C2131       C  0.12438796  0.60071276  0.50433430     0.13100
C2132       C  0.14263442  0.62585745  0.49994039    -0.12400
N2133       N  0.09952993  0.66706474  0.44142289     0.64800
H2134       H  0.06903091  0.61885673  0.45530899     0.12600
N2135       N  0.13361549  0.57818650  0.52494684     0.61400
H2136       H  0.16349727  0.62760004  0.51202638     0.08800
O2137       O  0.20005472  0.70884803  0.39106581    -0.40100
O2138       O  0.22677878  0.67183754  0.40756381    -0.39200
O2139       O  0.15890967  0.68607116  0.54586625    -0.39200
O2140       O  0.12350811  0.71193003  0.52499490    -0.36900
O2141       O  0.13083798  0.58265729  0.55267123    -0.37800
O2142       O  0.15017288  0.55732831  0.51593264    -0.34000
O2143       O  0.10154201  0.66094149  0.41394578    -0.35400
O2144       O  0.08474850  0.68956151  0.44953280    -0.39700
C2145       C  0.88784540  0.34502448  0.47359517    -0.13400
C2146       C  0.86374680  0.34587564  0.49350902     0.17000
C2147       C  0.85933153  0.37167915  0.51105936     0.03300
C2148       C  0.87906931  0.39584352  0.50874835    -0.11900
C2149       C  0.90350809  0.39480304  0.48929169    -0.03000
C2150       C  0.90767734  0.36914408  0.47133102     0.02500
C2151       C  0.84286126  0.32013492  0.49505762     0.09400
N2152       N  0.83455458  0.37392703  0.53094271     0.65700
H2153       H  0.87564961  0.41525553  0.52279640     0.18600
N2154       N  0.93136797  0.36758122  0.45003298     0.76200
H2155       H  0.89131426  0.32547648  0.45976120     0.10100
C2156       C  0.82566633  0.31183777  0.46999421     0.03800
C2157       C  0.80363410  0.28992558  0.47286894    -0.04900
C2158       C  0.79850013  0.27575897  0.50031203    -0.23300
C2159       C  0.81707895  0.28230709  0.52481580     0.13100
C2160       C  0.83920806  0.30436555  0.52203440    -0.12400
N2161       N  0.82852227  0.32726069  0.44216666     0.64800
H2162       H  0.78884962  0.28568790  0.45416779     0.12600
N2163       N  0.81261015  0.26791576  0.55300062     0.61400
H2164       H  0.85275864  0.31005088  0.54128140     0.08800
O2165       O  0.92637938  0.37458438  0.42315171    -0.40100
O2166       O  0.95460852  0.35314260  0.45640042    -0.39200
O2167       O  0.83865191  0.37096693  0.55871081    -0.39200
O2168       O  0.81054840  0.38518517  0.52163834    -0.36900
O2169       O  0.82968954  0.24706575  0.56099591    -0.37800
O2170       O  0.79108623  0.27533736  0.56951712    -0.34000
O2171       O  0.84088826  0.31443948  0.42034733    -0.35400
O2172       O  0.81367664  0.35072170  0.43772830    -0.39700
C2173       C  0.14753375  0.37519926  0.48227334    -0.13400
C2174       C  0.13597813  0.34603043  0.48205399     0.17000
C2175       C  0.10517917  0.34182672  0.48583292     0.03300
C2176       C  0.08665566  0.36649334  0.48969528    -0.11900
C2177       C  0.09792086  0.39595311  0.48948211    -0.03000
C2178       C  0.12893618  0.40007860  0.48551233     0.02500
C2179       C  0.15686784  0.32045522  0.48080760     0.09400
N2180       N  0.09219502  0.31266155  0.48525297     0.65700
H2181       H  0.06306697  0.36225015  0.49253454     0.18600
N2182       N  0.14210453  0.42913041  0.48449380     0.76200
H2183       H  0.17132841  0.37873678  0.48032412     0.10100
C2184       C  0.17872096  0.31841498  0.45827751     0.03800
C2185       C  0.20198804  0.29800767  0.46125821    -0.04900
C2186       C  0.20364759  0.27891931  0.48603746    -0.23300
C2187       C  0.18070521  0.27941915  0.50755600     0.13100
C2188       C  0.15755179  0.30014589  0.50474330    -0.12400
N2189       N  0.17792278  0.33732240  0.43253914     0.64800
H2190       H  0.21945997  0.29767061  0.44453013     0.12600
N2191       N  0.18208313  0.26139107  0.53388205     0.61400
H2192       H  0.14128666  0.30183165  0.52254873     0.08800
O2193       O  0.14476230  0.44213729  0.45959639    -0.40100
O2194       O  0.15754991  0.43798943  0.50634415    -0.39200
O2195       O  0.08162464  0.30172831  0.50901667    -0.39200
O2196       O  0.08524940  0.30116191  0.46044033    -0.36900
O2197       O  0.19729492  0.27030774  0.55589254    -0.37800
O2198       O  0.16266311  0.24136833  0.53786666    -0.34000
O2199       O  0.19660496  0.35827857  0.43011852    -0.35400
O2200       O  0.16367943  0.32888204  0.40970803    -0.39700
C2201       C  0.85320437  0.61956450  0.48700300    -0.13400
C2202       C  0.86438317  0.64858836  0.49100079     0.17000
C2203       C  0.89423114  0.65247035  0.49946113     0.03300
C2204       C  0.91268982  0.62755115  0.50264303    -0.11900
C2205       C  0.90214766  0.59831110  0.49710435    -0.03000
C2206       C  0.87167555  0.59451352  0.48987614     0.02500
C2207       C  0.84467045  0.67433740  0.48480403     0.09400
N2208       N  0.90662800  0.68165679  0.50302625     0.65700
H2209       H  0.93578621  0.63141665  0.50853511     0.18600
N2210       N  0.85930167  0.56567860  0.48405410     0.76200
H2211       H  0.83008076  0.61639814  0.48075624     0.10100
C2212       C  0.83436435  0.67953058  0.45551785     0.03800
C2213       C  0.81130158  0.69976524  0.45054002    -0.04900
C2214       C  0.79878174  0.71571621  0.47426974    -0.23300
C2215       C  0.81045208  0.71228806  0.50334649     0.13100
C2216       C  0.83343989  0.69165620  0.50844088    -0.12400
N2217       N  0.84655978  0.66363622  0.43071452     0.64800
H2218       H  0.80228575  0.70214048  0.42817547     0.12600
N2219       N  0.79734252  0.72753345  0.52815861     0.61400
H2220       H  0.84117295  0.68777437  0.53107219     0.08800
O2221       O  0.85834844  0.55604321  0.45754424    -0.40100
O2222       O  0.84436006  0.55267128  0.50411686    -0.39200
O2223       O  0.91217110  0.69136526  0.52893585    -0.39200
O2224       O  0.91738559  0.69495275  0.48059571    -0.36900
O2225       O  0.77190626  0.71996693  0.53753021    -0.37800
O2226       O  0.81062154  0.74944708  0.53990504    -0.34000
O2227       O  0.83215587  0.64223300  0.41936170    -0.35400
O2228       O  0.86845961  0.67453753  0.41676970    -0.39700
C2229       C  0.14676982  0.51368305  0.37410524    -0.13400
C2230       C  0.13838616  0.50174373  0.34627249     0.17000
C2231       C  0.11043785  0.48773241  0.34342709     0.03300
C2232       C  0.09108696  0.48688170  0.36787757    -0.11900
C2233       C  0.09894202  0.49977801  0.39549526    -0.03000
C2234       C  0.12733661  0.51304707  0.39857008     0.02500
C2235       C  0.15946102  0.50393186  0.32085909     0.09400
N2236       N  0.10090971  0.47513951  0.31564461     0.65700
H2237       H  0.06957003  0.47621615  0.36506493     0.18600
N2238       N  0.13630468  0.52724823  0.42576217     0.76200
H2239       H  0.16850947  0.52390041  0.37679007     0.10100
C2240       C  0.17199650  0.53170298  0.31275402     0.03800
C2241       C  0.19556978  0.53277162  0.29251527    -0.04900
C2242       C  0.20569978  0.50686541  0.27857579    -0.23300
C2243       C  0.19266553  0.47915881  0.28563535     0.13100
C2244       C  0.16977692  0.47781128  0.30688851    -0.12400
N2245       N  0.16112864  0.55902375  0.32504524     0.64800
H2246       H  0.20633758  0.55397058  0.28794567     0.12600
N2247       N  0.20436134  0.45210621  0.27347350     0.61400
H2248       H  0.16108388  0.45623182  0.31352897     0.08800
O2249       O  0.15428599  0.51413582  0.44299314    -0.40100
O2250       O  0.13164002  0.55480798  0.42915428    -0.39200
O2251       O  0.10110048  0.44715830  0.31239226    -0.39200
O2252       O  0.08600811  0.49093112  0.29772471    -0.36900
O2253       O  0.22468524  0.43831657  0.28718502    -0.37800
O2254       O  0.19667372  0.44371176  0.24765688    -0.34000
O2255       O  0.17775749  0.57440321  0.34183854    -0.35400
O2256       O  0.13814140  0.57076639  0.31392099    -0.39700
C2257       C  0.82894647  0.44837029  0.31952317    -0.13400
C2258       C  0.83962927  0.47779886  0.32030305     0.17000
C2259       C  0.83107484  0.49751999  0.29716762     0.03300
C2260       C  0.81043757  0.48823705  0.27534373    -0.11900
C2261       C  0.79835311  0.45928835  0.27567977    -0.03000
C2262       C  0.80865891  0.43896201  0.29759956     0.02500
C2263       C  0.86029711  0.48670508  0.34500924     0.09400
N2264       N  0.84187359  0.52751791  0.29634993     0.65700
H2265       H  0.80250487  0.50440356  0.25923804     0.18600
N2266       N  0.79897233  0.40852961  0.29787486     0.76200
H2267       H  0.83640399  0.43247547  0.33617908     0.10100
C2268       C  0.85218821  0.48337665  0.37536896     0.03800
C2269       C  0.87332649  0.48785444  0.39811810    -0.04900
C2270       C  0.90295738  0.49572548  0.39151417    -0.23300
C2271       C  0.91059858  0.50049038  0.36097409     0.13100
C2272       C  0.88939369  0.49584122  0.33828719    -0.12400
N2273       N  0.82244543  0.47540860  0.38351844     0.64800
H2274       H  0.86651278  0.48439878  0.42110653     0.12600
N2275       N  0.93983571  0.50974977  0.35232261     0.61400
H2276       H  0.89607746  0.49840748  0.31513991     0.08800
O2277       O  0.78120896  0.39992679  0.31799283    -0.40100
O2278       O  0.81423807  0.38931721  0.28413621    -0.39200
O2279       O  0.86123630  0.53467845  0.27717884    -0.39200
O2280       O  0.82739266  0.54774723  0.30946792    -0.36900
O2281       O  0.95809875  0.49059378  0.34284410    -0.37800
O2282       O  0.94504042  0.53711297  0.34804348    -0.34000
O2283       O  0.81690305  0.44916022  0.39216116    -0.35400
O2284       O  0.80365002  0.49574304  0.38828301    -0.39700
C2285       C  0.17154132  0.53182780  0.67349317    -0.13400
C2286       C  0.15700010  0.50416190  0.67276751     0.17000
C2287       C  0.16512614  0.48186268  0.69339339     0.03300
C2288       C  0.18800849  0.48737946  0.71402753    -0.11900
C2289       C  0.20376157  0.51445373  0.71361553    -0.03000
C2290       C  0.19525388  0.53693564  0.69317288     0.02500
C2291       C  0.13528795  0.49859193  0.64853711     0.09400
N2292       N  0.15195445  0.45284457  0.69215109     0.65700
H2293       H  0.19502932  0.46957552  0.72882887     0.18600
N2294       N  0.21149862  0.56434618  0.69080641     0.76200
H2295       H  0.16559264  0.54893914  0.65742726     0.10100
C2296       C  0.10579747  0.50856369  0.65092817     0.03800
C2297       C  0.08675532  0.50669070  0.62626479    -0.04900
C2298       C  0.09657214  0.49525506  0.59860921    -0.23300
C2299       C  0.12620565  0.48481786  0.59645234     0.13100
C2300       C  0.14518447  0.48647236  0.62139513    -0.12400
N2301       N  0.09513187  0.52154820  0.67804176     0.64800
H2302       H  0.06426311  0.51505695  0.62869762     0.12600
N2303       N  0.13735004  0.47213409  0.56941624     0.61400
H2304       H  0.16803071  0.47899317  0.61934337     0.08800
O2305       O  0.19901962  0.58838452  0.69837939    -0.40100
O2306       O  0.23396756  0.56550510  0.67389874    -0.39200
O2307       O  0.16587467  0.43188761  0.67956024    -0.39200
O2308       O  0.13005170  0.44682152  0.70877080    -0.36900
O2309       O  0.15132066  0.48852375  0.55121222    -0.37800
O2310       O  0.13955067  0.44413848  0.56734935    -0.34000
O2311       O  0.09467570  0.54958237  0.68069806    -0.35400
O2312       O  0.08082943  0.50561396  0.69637849    -0.39700
C2313       C  0.84163522  0.50463529  0.68970907    -0.13400
C2314       C  0.84091875  0.48097525  0.66917400     0.17000
C2315       C  0.82085415  0.45724175  0.67376501     0.03300
C2316       C  0.80012463  0.45885293  0.69704494    -0.11900
C2317       C  0.79900378  0.48380200  0.71603576    -0.03000
C2318       C  0.82097512  0.50616587  0.71317371     0.02500
C2319       C  0.86071996  0.48190542  0.64272755     0.09400
N2320       N  0.81957434  0.43261524  0.65350328     0.65700
H2321       H  0.78330200  0.44154384  0.69890579     0.18600
N2322       N  0.82133986  0.53163057  0.73233397     0.76200
H2323       H  0.85759197  0.52259909  0.68679349     0.10100
C2324       C  0.85669162  0.50335924  0.61998386     0.03800
C2325       C  0.87683727  0.50501768  0.59612184    -0.04900
C2326       C  0.90146356  0.48594992  0.59484529    -0.23300
C2327       C  0.90510912  0.46400655  0.61731622     0.13100
C2328       C  0.88461496  0.46201327  0.64084825    -0.12400
N2329       N  0.83236487  0.52379988  0.62100960     0.64800
H2330       H  0.87377688  0.52193798  0.57906577     0.12600
N2331       N  0.92933857  0.44341189  0.61645003     0.61400
H2332       H  0.88779621  0.44536174  0.65814484     0.08800
O2333       O  0.80952377  0.55555747  0.72342861    -0.40100
O2334       O  0.84000614  0.53260254  0.75342712    -0.39200
O2335       O  0.83012644  0.40773543  0.66133394    -0.39200
O2336       O  0.80277562  0.43401150  0.63091327    -0.36900
O2337       O  0.95231561  0.44864423  0.63186080    -0.37800
O2338       O  0.92489087  0.41737090  0.60664345    -0.34000
O2339       O  0.83692577  0.55042552  0.62903437    -0.35400
O2340       O  0.80807819  0.51698012  0.60852582    -0.39700
C2341       C  0.99292318  0.65064933  0.37972189    -0.13400
C2342       C  0.99402764  0.64161879  0.34973119     0.17000
C2343       C  0.99721265  0.61106811  0.34320142     0.03300
C2344       C  0.99892547  0.59015113  0.36650438    -0.11900
C2345       C  0.99762275  0.59886150  0.39681431    -0.03000
C2346       C  0.99468040  0.62980226  0.40318490     0.02500
C2347       C  0.99286275  0.66457432  0.32569561     0.09400
N2348       N  0.99963329  0.60094917  0.31299417     0.65700
H2349       H  0.00147125  0.56684969  0.36060135     0.18600
N2350       N  0.99350271  0.64068600  0.43320565     0.76200
H2351       H  0.99073777  0.67416286  0.38497963     0.10100
C2352       C  0.96614657  0.67114165  0.31050673     0.03800
C2353       C  0.96560157  0.69381302  0.28887812    -0.04900
C2354       C  0.99123024  0.71047876  0.28212602    -0.23300
C2355       C  0.01812458  0.70354379  0.29681979     0.13100
C2356       C  0.01869325  0.68084103  0.31856229    -0.12400
N2357       N  0.93917851  0.65562161  0.31740772     0.64800
H2358       H  0.94488073  0.69890161  0.27756896     0.12600
N2359       N  0.04522644  0.71834962  0.28900961     0.61400
H2360       H  0.03943849  0.67575130  0.32983819     0.08800
O2361       O  0.01690728  0.65068428  0.44525790    -0.40100
O2362       O  0.96857330  0.64639661  0.44486788    -0.39200
O2363       O  0.02504717  0.59536989  0.30238397    -0.39200
O2364       O  0.97682293  0.59104379  0.29979298    -0.36900
O2365       O  0.06187175  0.70686213  0.26943494    -0.37800
O2366       O  0.05594395  0.73761379  0.30658187    -0.34000
O2367       O  0.92093471  0.66723702  0.33539885    -0.35400
O2368       O  0.93050080  0.63481210  0.30047904    -0.39700
C2369       C  0.02357688  0.31155464  0.66349299    -0.13400
C2370       C  0.99864707  0.33028229  0.66422133     0.17000
C2371       C  0.97722923  0.32625282  0.68686322     0.03300
C2372       C  0.98130969  0.30405010  0.70863145    -0.11900
C2373       C  0.00634775  0.28530255  0.70808274    -0.03000
C2374       C  0.02761695  0.28918747  0.68509344     0.02500
C2375       C  0.99591541  0.35410521  0.64131243     0.09400
N2376       N  0.95108688  0.34429555  0.68782432     0.65700
H2377       H  0.96461602  0.30108365  0.72586146     0.18600
N2378       N  0.05411522  0.27165942  0.68407190     0.76200
H2379       H  0.04027684  0.31465436  0.64625903     0.10100
C2380       C  0.00963255  0.38208852  0.64543238     0.03800
C2381       C  0.00983975  0.40298646  0.62212884    -0.04900
C2382       C  0.99635113  0.39675218  0.59440031    -0.23300
C2383       C  0.98171717  0.36894838  0.59065533     0.13100
C2384       C  0.98182503  0.34788825  0.61399537    -0.12400
N2385       N  0.02378830  0.38948408  0.67309990     0.64800
H2386       H  0.02096253  0.42418616  0.62573295     0.12600
N2387       N  0.96582420  0.36208894  0.56379551     0.61400
H2388       H  0.97108538  0.32644457  0.61069245     0.08800
O2389       O  0.05819375  0.25427072  0.66225143    -0.40100
O2390       O  0.07611561  0.27929954  0.69990959    -0.39200
O2391       O  0.92754469  0.33506182  0.67544485    -0.39200
O2392       O  0.94978530  0.36586535  0.70591379    -0.36900
O2393       O  0.93809012  0.36644853  0.56268773    -0.37800
O2394       O  0.97801175  0.34616200  0.54403305    -0.34000
O2395       O  0.05183222  0.39078762  0.67438567    -0.35400
O2396       O  0.00854458  0.40064218  0.69397702    -0.39700
C2397       C  0.99867056  0.61674633  0.64720783    -0.13400
C2398       C  0.01079468  0.64428384  0.63845110     0.17000
C2399       C  0.01923352  0.64822209  0.60837159     0.03300
C2400       C  0.01553728  0.62483060  0.58775129    -0.11900
C2401       C  0.00358324  0.59693020  0.59631314    -0.03000
C2402       C  0.99504914  0.59318157  0.62663354     0.02500
C2403       C  0.01479034  0.66841110  0.66112326     0.09400
N2404       N  0.03182857  0.67580584  0.59840044     0.65700
H2405       H  0.02255369  0.62854444  0.56486109     0.18600
N2406       N  0.98204667  0.56593583  0.63693018     0.76200
H2407       H  0.99197438  0.61349850  0.67027337     0.10100
C2408       C  0.99178553  0.68884161  0.66745709     0.03800
C2409       C  0.99578639  0.71076459  0.68954220    -0.04900
C2410       C  0.02217126  0.71227544  0.70622282    -0.23300
C2411       C  0.04541746  0.69222602  0.69971839     0.13100
C2412       C  0.04155774  0.67041370  0.67735564    -0.12400
N2413       N  0.96382117  0.68693352  0.65237544     0.64800
H2414       H  0.97785810  0.72614282  0.69441612     0.12600
N2415       N  0.07320843  0.69428094  0.71525827     0.61400
H2416       H  0.05951278  0.65502926  0.67256705     0.08800
O2417       O  0.95408692  0.56392677  0.63899842    -0.40100
O2418       O  0.99816401  0.54710301  0.65023755    -0.39200
O2419       O  0.05970439  0.67805638  0.59558190    -0.39200
O2420       O  0.01523613  0.69502034  0.58629083    -0.36900
O2421       O  0.08166315  0.67315741  0.73184987    -0.37800
O2422       O  0.08896678  0.71755718  0.71316112    -0.34000
O2423       O  0.94290223  0.67218447  0.66413209    -0.35400
O2424       O  0.95807647  0.70501169  0.63152920    -0.39700
C2425       C  0.95573783  0.34127925  0.18842822    -0.13400
C2426       C  0.98212856  0.33694743  0.17204087     0.17000
C2427       C  0.00025493  0.31222338  0.17927760     0.03300
C2428       C  0.99063816  0.29139722  0.20076686    -0.11900
C2429       C  0.96370036  0.29518334  0.21622545    -0.03000
C2430       C  0.94658354  0.32081317  0.21046401     0.02500
C2431       C  0.98996971  0.35869193  0.14780427     0.09400
N2432       N  0.02894580  0.30852510  0.16598141     0.65700
H2433       H  0.00412813  0.27185005  0.20516207     0.18600
N2434       N  0.91938603  0.32589921  0.22614185     0.76200
H2435       H  0.94179941  0.36040704  0.18363573     0.10100
C2436       C  0.99138851  0.35043939  0.11732015     0.03800
C2437       C  0.99618885  0.37226867  0.09516417    -0.04900
C2438       C  0.99900630  0.40280498  0.10232813    -0.23300
C2439       C  0.99805147  0.41079978  0.13312321     0.13100
C2440       C  0.99366729  0.38886722  0.15519879    -0.12400
N2441       N  0.98559256  0.32042977  0.10811110     0.64800
H2442       H  0.99641126  0.36520305  0.07199122     0.12600
N2443       N  0.00057253  0.44111877  0.14268733     0.61400
H2444       H  0.99249303  0.39562487  0.17845364     0.08800
O2445       O  0.89491581  0.31961987  0.21373696    -0.40100
O2446       O  0.91958186  0.34217149  0.24917555    -0.39200
O2447       O  0.05073109  0.32292530  0.17655011    -0.39200
O2448       O  0.03388522  0.28593159  0.14989846    -0.36900
O2449       O  0.97732775  0.45505879  0.15001554    -0.37800
O2450       O  0.02555345  0.45085390  0.15124122    -0.34000
O2451       O  0.95894281  0.31172037  0.10578675    -0.35400
O2452       O  0.00581408  0.30591471  0.09504290    -0.39700
C2453       C  0.93979411  0.17535809  0.32755359    -0.13400
C2454       C  0.96885132  0.17562344  0.33913790     0.17000
C2455       C  0.98857013  0.19848977  0.32994647     0.03300
C2456       C  0.97925008  0.21976558  0.30884346    -0.11900
C2457       C  0.95072884  0.21846930  0.29598829    -0.03000
C2458       C  0.93069379  0.19622088  0.30604102     0.02500
C2459       C  0.97830250  0.15051273  0.35893016     0.09400
N2460       N  0.01900083  0.19870298  0.33931048     0.65700
H2461       H  0.99539438  0.23574306  0.30058298     0.18600
N2462       N  0.90129645  0.19382076  0.29395800     0.76200
H2463       H  0.92429806  0.15812197  0.33454345     0.10100
C2464       C  0.98794563  0.15503531  0.38859715     0.03800
C2465       C  0.99478271  0.13043985  0.40674171    -0.04900
C2466       C  0.99128188  0.10081438  0.39653621    -0.23300
C2467       C  0.98196508  0.09642651  0.36658858     0.13100
C2468       C  0.97590714  0.12111714  0.34819227    -0.12400
N2469       N  0.98855140  0.18419502  0.40157303     0.64800
H2470       H  0.00164681  0.13477248  0.42957309     0.12600
N2471       N  0.97661400  0.06722819  0.35492431     0.61400
H2472       H  0.96833643  0.11725623  0.32548660     0.08800
O2473       O  0.89562754  0.17343169  0.27531138    -0.40100
O2474       O  0.88002684  0.20632861  0.30741222    -0.39200
O2475       O  0.03708452  0.18099144  0.32707156    -0.39200
O2476       O  0.02897344  0.22095877  0.35346767    -0.36900
O2477       O  0.99540775  0.05559568  0.33752126    -0.37800
O2478       O  0.95080289  0.05616386  0.35670142    -0.34000
O2479       O  0.96445497  0.19569363  0.41032072    -0.35400
O2480       O  0.01288078  0.19456198  0.41123730    -0.39700
C2481       C  0.00470036  0.34895440  0.37391081    -0.13400
C2482       C  0.98485742  0.35455187  0.35029527     0.17000
C2483       C  0.97057946  0.38253050  0.34885683     0.03300
C2484       C  0.97627661  0.40425763  0.37068367    -0.11900
C2485       C  0.99569350  0.39861776  0.39465055    -0.03000
C2486       C  0.01006172  0.37056063  0.39611723     0.02500
C2487       C  0.97757772  0.33051922  0.32842489     0.09400
N2488       N  0.95003801  0.38916000  0.32536755     0.65700
H2489       H  0.96472643  0.42543252  0.36930017     0.18600
N2490       N  0.03046037  0.36378464  0.41970572     0.76200
H2491       H  0.01557467  0.32744853  0.37549695     0.10100
C2492       C  0.99905151  0.31877160  0.30861023     0.03800
C2493       C  0.99065701  0.29755638  0.28705089    -0.04900
C2494       C  0.96139713  0.28671935  0.28577625    -0.23300
C2495       C  0.94035180  0.29715505  0.30665765     0.13100
C2496       C  0.94842100  0.31918355  0.32741810    -0.12400
N2497       N  0.02943086  0.32811443  0.31010070     0.64800
H2498       H  0.00709817  0.28909766  0.27150908     0.12600
N2499       N  0.91059156  0.28581941  0.30679549     0.61400
H2500       H  0.93185988  0.32738204  0.34299198     0.08800
O2501       O  0.05797195  0.36799824  0.41573952    -0.40100
O2502       O  0.02184578  0.34818958  0.44157529    -0.39200
O2503       O  0.92248903  0.38986006  0.33088732    -0.39200
O2504       O  0.95958773  0.39954833  0.30094550    -0.36900
O2505       O  0.90351272  0.26592168  0.32547768    -0.37800
O2506       O  0.89033085  0.30018148  0.29361258    -0.34000
O2507       O  0.04841019  0.31113620  0.32204256    -0.35400
O2508       O  0.03814733  0.34963975  0.29412689    -0.39700
loop_ 
_geom_bond_atom_site_label_1 
_geom_bond_atom_site_label_2 
_geom_bond_distance 
_geom_bond_site_symmetry_2 
_ccdc_geom_bond_type 
N1            C5   1.360       .  A
N1            C2   1.362       .  A
N1         C2494   1.441       .  S
C2            C3   1.385       .  A
C2         C2457   1.492       .  S
C3            C4   1.375       .  A
C3            H6   1.081       .  S
C4            C5   1.380       .  A
C4            H7   1.082       .  S
C5         C2429   1.486       .  S
O8          Zr44   2.440       .  S
O8           C19   1.291   1_455  A
O9          Zr43   2.452       .  S
O9           C20   1.294       .  A
O10         Zr16   2.431   1_655  S
O10          C21   1.290       .  A
O11         Zr16   2.424       .  S
O11          C22   1.291       .  A
O12         Zr46   2.450       .  S
O12          C22   1.294       .  A
O13         Zr45   2.477       .  S
O13          C21   1.301       .  A
O14         Zr16   2.453   1_655  S
O14          C20   1.296       .  A
O15         Zr16   2.456   1_655  S
O15          C19   1.296       .  A
Zr16         O17   2.338       .  S
Zr16         O18   2.334   1_455  S
Zr16         O26   2.344       .  S
Zr16         O24   2.339   1_455  S
O17         Zr43   2.337   1_455  S
O17         Zr46   2.351       .  S
O18         Zr44   2.339   1_655  S
O18         Zr45   2.342       .  S
C19        C2485   1.488       .  S
C20        C2345   1.504       .  S
C21        C2270   1.504       .  S
C22        C2233   1.482       .  S
H23          O24   0.962       .  S
O24         Zr43   2.342       .  S
O24         Zr45   2.345       .  S
H25          O26   0.963       .  S
O26         Zr44   2.340       .  S
O26         Zr46   2.353       .  S
O27         Zr43   2.447   1_455  S
O27          C50   1.294       .  A
O28         Zr44   2.456   1_655  S
O28          C51   1.295       .  A
O29         Zr45   2.464       .  S
O29          C52   1.297       .  A
O30         Zr46   2.457       .  S
O30          C53   1.295       .  A
O31         Zr46   2.459       .  S
O31          C54   1.295       .  A
O32         Zr45   2.465       .  S
O32          C55   1.298       .  A
O33         Zr47   2.426       .  S
O33          C56   1.290       .  A
O34         Zr47   2.426   1_455  S
O34          C57   1.291       .  A
O35         Zr45   2.464       .  S
O35          C56   1.298       .  A
O36         Zr46   2.463       .  S
O36          C57   1.297       .  A
O37         Zr43   2.421       .  S
O37          C52   1.290       .  A
O38         Zr44   2.420   1_655  S
O38          C55   1.288       .  A
O39         Zr44   2.417       .  S
O39          C54   1.289       .  A
O40         Zr43   2.426   1_455  S
O40          C53   1.291       .  A
O41         Zr47   2.472       .  S
O41          C50   1.298   1_655  A
O42         Zr47   2.440       .  S
O42          C51   1.293       .  A
Zr43         O49   2.342       .  S
Zr43         O61   2.342   1_655  S
Zr44         O48   2.343       .  S
Zr44         O59   2.331   1_455  S
Zr45         O49   2.358       .  S
Zr45         O59   2.344       .  S
Zr46         O48   2.351       .  S
Zr46         O61   2.352       .  S
Zr47         O48   2.347   1_655  S
Zr47         O49   2.342       .  S
Zr47         O61   2.342   1_655  S
Zr47         O59   2.343       .  S
C50        C2401   1.506       .  S
C51        C2382   1.491       .  S
C52        C2205   1.495       .  S
C53        C2130   1.480       .  S
C54        C2177   1.493       .  S
C55        C2149   1.480       .  S
C56        C2326   1.477       .  S
C57        C2298   1.491       .  S
H58          O59   1.003       .  S
H60          O61   0.962       .  S
N62          C66   1.357       .  A
N62          C63   1.362       .  A
N62        C2410   1.443       .  S
C63          C64   1.383       .  A
C63        C2065   1.484       .  S
C64          C65   1.370       .  A
C64          H67   1.082       .  S
C65          C66   1.379       .  A
C65          H68   1.082       .  S
C66        C2102   1.472       .  S
N69          C73   1.360       .  A
N69          C70   1.362       .  A
N69        C2373   1.447       .  S
C70          C71   1.382       .  A
C70        C2046   1.477       .  S
C71          C72   1.366       .  A
C71          H74   1.083       .  S
C72          C73   1.380       .  A
C72          H75   1.082       .  S
C73        C2009   1.476       .  S
N76          C80   1.358       .  A
N76          C77   1.356       .  A
N76        C2354   1.444       .  S
C77          C78   1.380       .  A
C77        C1962   1.470       .  S
C78          C79   1.369       .  A
C78          H81   1.082       .  S
C79          C80   1.381       .  A
C79          H82   1.082       .  S
C80        C1981   1.471       .  S
O83        Zr119   2.469   1_545  S
O83          C94   1.298       .  A
O84        Zr118   2.446   1_445  S
O84          C95   1.294       .  A
O85         Zr91   2.458       .  S
O85          C96   1.296       .  A
O86         Zr91   2.452   1_455  S
O86          C97   1.295       .  A
O87        Zr121   2.448   1_545  S
O87          C97   1.293       .  A
O88        Zr120   2.447   1_545  S
O88          C96   1.294       .  A
O89         Zr91   2.425   1_455  S
O89          C95   1.290       .  A
O90         Zr91   2.429       .  S
O90          C94   1.292       .  A
Zr91         O92   2.337   1_655  S
Zr91         O93   2.334       .  S
Zr91        O101   2.348   1_655  S
Zr91         O99   2.350       .  S
O92        Zr118   2.342   1_445  S
O92        Zr121   2.332   1_545  S
O93        Zr119   2.344   1_545  S
O93        Zr120   2.335   1_545  S
C94        C2466   1.501       .  S
C95        C2037   1.478       .  S
C96        C1906   1.496       .  S
C97        C1925   1.502       .  S
H98          O99   0.967       .  S
O99        Zr118   2.352   1_545  S
O99        Zr120   2.346   1_545  S
H100        O101   0.967       .  S
O101       Zr119   2.352   1_445  S
O101       Zr121   2.348   1_545  S
O102       Zr118   2.437       .  S
O102        C125   1.292       .  A
O103       Zr119   2.458   1_455  S
O103        C126   1.297       .  A
O104       Zr120   2.434       .  S
O104        C127   1.292       .  A
O105       Zr121   2.422       .  S
O105        C128   1.290       .  A
O106       Zr121   2.417       .  S
O106        C129   1.289       .  A
O107       Zr120   2.425       .  S
O107        C130   1.291       .  A
O108       Zr122   2.463       .  S
O108        C131   1.298       .  A
O109       Zr122   2.457   1_455  S
O109        C132   1.296       .  A
O110       Zr120   2.443       .  S
O110        C131   1.292       .  A
O111       Zr121   2.451       .  S
O111        C132   1.294       .  A
O112       Zr118   2.464       .  S
O112        C127   1.297       .  A
O113       Zr119   2.447       .  S
O113        C130   1.294       .  A
O114       Zr119   2.453   1_455  S
O114        C129   1.294       .  A
O115       Zr118   2.461   1_455  S
O115        C128   1.296       .  A
O116       Zr122   2.430       .  S
O116        C125   1.291       .  A
O117       Zr122   2.417   1_455  S
O117        C126   1.288       .  A
Zr118       O124   2.344       .  S
Zr118       O136   2.349   1_655  S
Zr119       O123   2.337   1_655  S
Zr119       O134   2.353       .  S
Zr120       O124   2.335       .  S
Zr120       O134   2.347       .  S
Zr121       O123   2.327       .  S
Zr121       O136   2.343       .  S
Zr122       O123   2.334   1_655  S
Zr122       O124   2.334       .  S
Zr122       O136   2.343   1_655  S
Zr122       O134   2.343       .  S
C125       C2093   1.469       .  S
C126       C1990   1.490       .  S
C127       C1738   1.498       .  S
C128       C1757   1.494       .  S
C129       C1785   1.481       .  S
C130       C1813   1.485       .  S
C131       C1869   1.505       .  S
C132       C1841   1.502       .  S
H133        O134   0.967       .  S
H135        O136   0.966       .  S
N137        C141   1.362       .  A
N137        C138   1.360       .  A
N137       C1934   1.445       .  S
C138        C139   1.380       .  A
C138       C2186   1.476       .  S
C139        C140   1.369       .  A
C139        H142   1.082       .  S
C140        C141   1.382       .  A
C140        H143   1.082       .  S
C141       C1710   1.481       .  S
N144        C148   1.360       .  A
N144        C145   1.357       .  A
N144       C1897   1.443       .  S
C145        C146   1.379       .  A
C145       C2158   1.472       .  S
C146        C147   1.369       .  A
C146        H149   1.082       .  S
C147        C148   1.383       .  A
C147        H150   1.082       .  S
C148       C1682   1.478       .  S
N151        C155   1.357       .  A
N151        C152   1.358       .  A
N151       C1878   1.446       .  S
C152        C153   1.381       .  A
C152       C1645   1.473       .  S
C153        C154   1.372       .  A
C153        H156   1.082       .  S
C154        C155   1.380       .  A
C154        H157   1.082       .  S
C155       C2214   1.473       .  S
N158        C162   1.358       .  A
N158        C159   1.360       .  A
N158       C1850   1.442       .  S
C159        C160   1.383       .  A
C159       C2121   1.482       .  S
C160        C161   1.369       .  A
C160        H163   1.081       .  S
C161        C162   1.380       .  A
C161        H164   1.082       .  S
C162       C1617   1.474       .  S
N165        C169   1.354       .  A
N165        C166   1.355       .  A
N165       C1589   1.444       .  S
C166        C167   1.380       .  A
C166       C1822   1.464       .  S
C167        C168   1.370       .  A
C167        H170   1.082       .  S
C168        C169   1.381       .  A
C168        H171   1.082       .  S
C169       C1570   1.466       .  S
O172       Zr208   2.467       .  S
O172        C183   1.297       .  A
O173       Zr207   2.458       .  S
O173        C184   1.296       .  A
O174       Zr180   2.453       .  S
O174        C185   1.295       .  A
O175       Zr180   2.447       .  S
O175        C186   1.294       .  A
O176       Zr210   2.456       .  S
O176        C186   1.295       .  A
O177       Zr209   2.440       .  S
O177        C185   1.291       .  A
O178       Zr180   2.415       .  S
O178        C184   1.288       .  A
O179       Zr180   2.425   1_545  S
O179        C183   1.291       .  A
Zr180       O181   2.339       .  S
Zr180       O182   2.336   1_565  S
Zr180       O190   2.331   1_565  S
Zr180       O188   2.341       .  S
O181       Zr207   2.350       .  S
O181       Zr210   2.332       .  S
O182       Zr208   2.346       .  S
O182       Zr209   2.343   1_545  S
C183       C1701   1.498       .  S
C184       C1626   1.469       .  S
C185       C1477   1.491       .  S
C186       C1533   1.496       .  S
H187        O188   0.966       .  S
O188       Zr207   2.352       .  S
O188       Zr209   2.332       .  S
H189        O190   0.966       .  S
O190       Zr208   2.348       .  S
O190       Zr210   2.335   1_545  S
O191       Zr207   2.483       .  S
O191        C214   1.300       .  A
O192       Zr208   2.455       .  S
O192        C215   1.297       .  A
O193       Zr209   2.427       .  S
O193        C216   1.289       .  A
O194       Zr210   2.420       .  S
O194        C217   1.290       .  A
O195       Zr210   2.420   1_545  S
O195        C218   1.290       .  A
O196       Zr209   2.408   1_545  S
O196        C219   1.287       .  A
O197       Zr211   2.449       .  S
O197        C220   1.295       .  A
O198       Zr211   2.461       .  S
O198        C221   1.297       .  A
O199       Zr209   2.443       .  S
O199        C220   1.292       .  A
O200       Zr210   2.442       .  S
O200        C221   1.292       .  A
O201       Zr207   2.450       .  S
O201        C216   1.295       .  A
O202       Zr208   2.468       .  S
O202        C219   1.298       .  A
O203       Zr208   2.452       .  S
O203        C218   1.295       .  A
O204       Zr207   2.454       .  S
O204        C217   1.295       .  A
O205       Zr211   2.422       .  S
O205        C214   1.290       .  A
O206       Zr211   2.427   1_545  S
O206        C215   1.290       .  A
Zr207       O213   2.346       .  S
Zr207       O225   2.348       .  S
Zr208       O212   2.353       .  S
Zr208       O223   2.349       .  S
Zr209       O213   2.341       .  S
Zr209       O223   2.341   1_565  S
Zr210       O212   2.340   1_565  S
Zr210       O225   2.341       .  S
Zr211       O212   2.337   1_565  S
Zr211       O213   2.343       .  S
Zr211       O225   2.341       .  S
Zr211       O223   2.345   1_565  S
C214       C1654   1.498       .  S
C215       C1673   1.492       .  S
C216       C1393   1.473       .  S
C217       C1449   1.493       .  S
C218       C1421   1.481       .  S
C219       C1365   1.479       .  S
C220       C1598   1.499       .  S
C221       C1514   1.501       .  S
H222        O223   0.966       .  S
H224        O225   0.967       .  S
N226        C230   1.362       .  A
N226        C227   1.364       .  A
N226       C1542   1.451       .  S
C227        C228   1.382       .  A
C227       C1337   1.478       .  S
C228        C229   1.368       .  A
C228        H231   1.082       .  S
C229        C230   1.379       .  A
C229        H232   1.082       .  S
C230       C1766   1.478       .  S
N233        C237   1.366       .  A
N233        C234   1.360       .  A
N233       C1505   1.442       .  S
C234        C235   1.379       .  A
C234       C1729   1.484       .  S
C235        C236   1.371       .  A
C235        H238   1.082       .  S
C236        C237   1.385       .  A
C236        H239   1.080       .  S
C237       C1309   1.493       .  S
N240        C244   1.357       .  A
N240        C241   1.356       .  A
N240       C1486   1.443       .  S
C241        C242   1.380       .  A
C241       C1290   1.471       .  S
C242        C243   1.371       .  A
C242        H245   1.082       .  S
C243        C244   1.380       .  A
C243        H246   1.082       .  S
C244       C1794   1.470       .  S
O247       Zr283   2.471   1_554  S
O247        C258   1.299       .  A
O248       Zr282   2.459   1_544  S
O248        C259   1.297       .  A
O249       Zr255   2.445   1_545  S
O249        C260   1.294       .  A
O250       Zr255   2.457       .  S
O250        C261   1.295       .  A
O251       Zr285   2.458   1_554  S
O251        C261   1.296       .  A
O252       Zr284   2.457   1_554  S
O252        C260   1.295       .  A
O253       Zr255   2.429   1_545  S
O253        C259   1.290       .  A
O254       Zr255   2.390       .  S
O254        C258   1.283       .  A
Zr255       O256   2.334       .  S
Zr255       O257   2.339   1_565  S
Zr255       O265   2.341       .  S
Zr255       O263   2.332   1_565  S
O256       Zr282   2.347   1_554  S
O256       Zr285   2.340   1_554  S
O257       Zr283   2.349   1_544  S
O257       Zr284   2.336   1_554  S
C258       C1561   1.477       .  S
C259       C1281   1.486       .  S
C260       C1253   1.500       .  S
C261       C1225   1.507       .  S
H262        O263   0.967       .  S
O263       Zr282   2.347   1_544  S
O263       Zr284   2.341   1_554  S
H264        O265   0.967       .  S
O265       Zr283   2.354   1_554  S
O265       Zr285   2.333   1_554  S
O266       Zr282   2.456   1_545  S
O266        C289   1.297       .  A
O267       Zr283   2.472       .  S
O267        C290   1.298       .  A
O268       Zr284   2.434       .  S
O268        C291   1.291       .  A
O269       Zr285   2.422       .  S
O269        C292   1.289       .  A
O270       Zr285   2.423       .  S
O270        C293   1.291       .  A
O271       Zr284   2.412       .  S
O271        C294   1.289       .  A
O272       Zr286   2.438   1_545  S
O272        C295   1.292       .  A
O273       Zr286   2.438       .  S
O273        C296   1.291       .  A
O274       Zr284   2.453       .  S
O274        C295   1.294       .  A
O275       Zr285   2.444       .  S
O275        C296   1.294       .  A
O276       Zr282   2.447   1_545  S
O276        C291   1.296       .  A
O277       Zr283   2.457   1_545  S
O277        C294   1.296       .  A
O278       Zr283   2.467       .  S
O278        C293   1.297       .  A
O279       Zr282   2.456       .  S
O279        C292   1.295       .  A
O280       Zr286   2.431   1_545  S
O280        C289   1.290       .  A
O281       Zr286   2.421       .  S
O281        C290   1.289       .  A
Zr282       O288   2.343   1_565  S
Zr282       O300   2.344       .  S
Zr283       O287   2.341       .  S
Zr283       O298   2.363   1_565  S
Zr284       O288   2.337       .  S
Zr284       O298   2.354       .  S
Zr285       O287   2.336       .  S
Zr285       O300   2.340       .  S
Zr286       O287   2.338       .  S
Zr286       O288   2.336   1_565  S
Zr286       O300   2.336       .  S
Zr286       O298   2.344   1_565  S
C289       C1346   1.492       .  S
C290       C1318   1.485       .  S
C291       C1150   1.492   1_556  S
C292       C1094   1.466       .  S
C293       C1122   1.494       .  S
C294       C1057   1.489       .  S
C295       C1169   1.483       .  S
C296       C1197   1.492       .  S
H297        O298   0.966       .  S
H299        O300   0.966       .  S
N301        C305   1.358       .  A
N301        C302   1.362       .  A
N301       C1262   1.440       .  S
C302        C303   1.384       .  A
C302       C1038   1.489       .  S
C303        C304   1.374       .  A
C303        H306   1.081       .  S
C304        C305   1.379       .  A
C304        H307   1.082       .  S
C305       C1374   1.480       .  S
N308        C312   1.363       .  A
N308        C309   1.361       .  A
N308       C1234   1.450       .  S
C309        C310   1.380       .  A
C309       C1001   1.475       .  S
C310        C311   1.366       .  A
C310        H313   1.082       .  S
C311        C312   1.381       .  A
C311        H314   1.083       .  S
C312       C1402   1.475       .  S
N315        C319   1.356       .  A
N315        C316   1.356       .  A
N315       C1206   1.441       .  S
C316        C317   1.381       .  A
C316        C982   1.472       .  S
C317        C318   1.371       .  A
C317        H320   1.082       .  S
C318        C319   1.381       .  A
C318        H321   1.082       .  S
C319       C1458   1.473       .  S
N322        C326   1.356       .  A
N322        C323   1.356       .  A
N322       C1178   1.444       .  S
C323        C324   1.380       .  A
C323        C954   1.467       .  S
C324        C325   1.371       .  A
C324        H327   1.082       .  S
C325        C326   1.381       .  A
C325        H328   1.082       .  S
C326       C1430   1.472       .  S
O329       Zr365   2.475   1_554  S
O329        C340   1.300       .  A
O330       Zr364   2.462   1_554  S
O330        C341   1.296   1_455  A
O331       Zr337   2.451       .  S
O331        C342   1.296       .  A
O332       Zr337   2.468   1_655  S
O332        C343   1.299       .  A
O333       Zr367   2.450   1_554  S
O333        C343   1.293       .  A
O334       Zr366   2.431   1_554  S
O334        C342   1.290       .  A
O335       Zr337   2.413   1_655  S
O335        C341   1.289       .  A
O336       Zr337   2.448       .  S
O336        C340   1.294       .  A
Zr337       O338   2.342   1_455  S
Zr337       O339   2.339       .  S
Zr337       O347   2.333   1_455  S
Zr337       O345   2.354       .  S
O338       Zr364   2.353   1_654  S
O338       Zr367   2.336   1_554  S
O339       Zr365   2.343   1_554  S
O339       Zr366   2.343   1_554  S
C340       C2438   1.510   1_455  S
C341       C1953   1.480       .  S
C342        C889   1.489       .  S
C343        C917   1.505       .  S
H344        O345   0.966       .  S
O345       Zr364   2.348   1_554  S
O345       Zr366   2.344   1_554  S
H346        O347   0.966       .  S
O347       Zr365   2.351   1_654  S
O347       Zr367   2.342   1_554  S
O348       Zr364   2.457       .  S
O348        C371   1.297       .  A
O349       Zr365   2.473       .  S
O349        C372   1.298       .  A
O350       Zr366   2.420       .  S
O350        C373   1.290       .  A
O351       Zr367   2.433       .  S
O351        C374   1.291       .  A
O352       Zr367   2.417       .  S
O352        C375   1.289       .  A
O353       Zr366   2.431   1_554  S
O353        C376   1.290       .  A
O354       Zr368   2.455       .  S
O354        C377   1.295       .  A
O355       Zr368   2.459   1_655  S
O355        C378   1.296       .  A
O356       Zr366   2.455       .  S
O356        C377   1.295       .  A
O357       Zr367   2.440       .  S
O357        C378   1.292       .  A
O358       Zr364   2.465       .  S
O358        C373   1.296       .  A
O359       Zr365   2.457   1_554  S
O359        C376   1.297       .  A
O360       Zr365   2.459   1_655  S
O360        C375   1.296       .  A
O361       Zr364   2.455   1_655  S
O361        C374   1.296       .  A
O362       Zr368   2.429       .  S
O362        C371   1.290       .  A
O363       Zr368   2.414       .  S
O363        C372   1.288       .  A
Zr364       O370   2.341       .  S
Zr364       O382   2.353   1_455  S
Zr365       O369   2.354   1_455  S
Zr365       O380   2.356       .  S
Zr366       O370   2.329       .  S
Zr366       O380   2.339       .  S
Zr367       O369   2.341       .  S
Zr367       O382   2.344       .  S
Zr368       O369   2.337   1_455  S
Zr368       O370   2.331       .  S
Zr368       O382   2.344   1_455  S
Zr368       O380   2.351       .  S
C371       C2074   1.492       .  S
C372       C2018   1.476       .  S
C373        C786   1.497       .  S
C374        C721   1.486       .  S
C375        C749   1.493       .  S
C376        C805   1.495       .  S
C377        C861   1.500       .  S
C378        C833   1.494       .  S
H379        O380   0.967       .  S
H381        O382   0.966       .  S
N383        C387   1.364       .  A
N383        C384   1.361       .  A
N383        C926   1.443       .  S
C384        C385   1.381       .  A
C384        C693   1.486       .  S
C385        C386   1.372       .  A
C385        H388   1.082       .  S
C386        C387   1.384       .  A
C386        H389   1.081       .  S
C387       C2261   1.493       .  S
N390        C394   1.355       .  A
N390        C391   1.356       .  A
N390        C898   1.446       .  S
C391        C392   1.379       .  A
C391        C665   1.466       .  S
C392        C393   1.370       .  A
C392        H395   1.082       .  S
C393        C394   1.380       .  A
C393        H396   1.082       .  S
C394       C2242   1.464       .  S
N397        C401   1.354       .  A
N397        C398   1.358       .  A
N397        C870   1.440       .  S
C398        C399   1.383       .  A
C398       C2289   1.477       .  S
C399        C400   1.374       .  A
C399        H402   1.082       .  S
C400        C401   1.379       .  A
C400        H403   1.082       .  S
C401        C646   1.472       .  S
N404        C408   1.363       .  A
N404        C405   1.361       .  A
N404        C842   1.444       .  S
C405        C406   1.381       .  A
C405       C2317   1.480       .  S
C406        C407   1.366       .  A
C406        H409   1.082       .  S
C407        C408   1.381       .  A
C407        H410   1.083       .  S
C408        C609   1.479       .  S
N411        C415   1.355   1_556  A
N411        C412   1.361       .  A
N411        C581   1.446       .  S
C412        C413   1.383       .  A
C412       C1141   1.478       .  S
C413        C414   1.370       .  A
C413        H416   1.081       .  S
C414        C415   1.380   1_556  A
C414        H417   1.082       .  S
C415        C814   1.473       .  S
O418       Zr454   2.468       .  S
O418        C429   1.298       .  A
O419       Zr453   2.451       .  S
O419        C430   1.296       .  A
O420       Zr426   2.471       .  S
O420        C431   1.299       .  A
O421       Zr426   2.455       .  S
O421        C432   1.296       .  A
O422       Zr456   2.436       .  S
O422        C432   1.291       .  A
O423       Zr455   2.455       .  S
O423        C431   1.294       .  A
O424       Zr426   2.417       .  S
O424        C430   1.288       .  A
O425       Zr426   2.425   1_554  S
O425        C429   1.291       .  A
Zr426       O427   2.341       .  S
Zr426       O428   2.332   1_556  S
Zr426       O436   2.345   1_556  S
Zr426       O434   2.347       .  S
O427       Zr453   2.345       .  S
O427       Zr456   2.331       .  S
O428       Zr454   2.350       .  S
O428       Zr455   2.337   1_554  S
C429       C1029   1.491       .  S
C430        C945   1.478       .  S
C431        C590   1.514       .  S
C432        C497   1.499       .  S
H433        O434   0.967       .  S
O434       Zr453   2.354       .  S
O434       Zr455   2.339       .  S
H435        O436   0.967       .  S
O436       Zr454   2.355       .  S
O436       Zr456   2.346   1_554  S
O437       Zr453   2.463       .  S
O437        C460   1.296       .  A
O438       Zr454   2.471       .  S
O438        C461   1.299       .  A
O439       Zr455   2.420       .  S
O439        C462   1.290       .  A
O440       Zr456   2.433       .  S
O440        C463   1.291       .  A
O441       Zr456   2.406   1_554  S
O441        C464   1.287       .  A
O442       Zr455   2.408   1_554  S
O442        C465   1.288       .  A
O443       Zr457   2.455       .  S
O443        C466   1.296       .  A
O444       Zr457   2.465       .  S
O444        C467   1.297   1_556  A
O445       Zr455   2.450       .  S
O445        C466   1.293       .  A
O446       Zr456   2.439   1_554  S
O446        C467   1.292       .  A
O447       Zr453   2.458       .  S
O447        C462   1.295       .  A
O448       Zr454   2.462       .  S
O448        C465   1.297       .  A
O449       Zr454   2.477       .  S
O449        C464   1.299       .  A
O450       Zr453   2.438       .  S
O450        C463   1.292       .  A
O451       Zr457   2.412       .  S
O451        C460   1.289       .  A
O452       Zr457   2.408   1_554  S
O452        C461   1.287       .  A
Zr453       O459   2.344       .  S
Zr453       O471   2.346       .  S
Zr454       O458   2.346       .  S
Zr454       O469   2.358       .  S
Zr455       O459   2.337       .  S
Zr455       O469   2.348   1_556  S
Zr456       O458   2.334   1_556  S
Zr456       O471   2.326       .  S
Zr457       O458   2.335   1_556  S
Zr457       O459   2.340       .  S
Zr457       O471   2.330       .  S
Zr457       O469   2.342   1_556  S
C460        C973   1.492       .  S
C461       C1010   1.480       .  S
C462        C637   1.487       .  S
C463        C618   1.479       .  S
C464        C702   1.495       .  S
C465        C674   1.480       .  S
C466        C525   1.505       .  S
C467        C553   1.498       .  S
H468        O469   0.967       .  S
H470        O471   0.965       .  S
N472        C476   1.360       .  A
N472        C473   1.358       .  A
N472        C562   1.441       .  S
C473        C474   1.381       .  A
C473       C1113   1.479       .  S
C474        C475   1.372       .  A
C474        H477   1.082       .  S
C475        C476   1.382       .  A
C475        H478   1.082       .  S
C476        C730   1.479       .  S
N479        C483   1.365       .  A
N479        C480   1.364       .  A
N479        C534   1.451       .  S
C480        C481   1.382       .  A
C480       C1085   1.478       .  S
C481        C482   1.367       .  A
C481        H484   1.082       .  S
C482        C483   1.379       .  A
C482        H485   1.082       .  S
C483        C777   1.480       .  S
N486        C490   1.357       .  A
N486        C487   1.357       .  A
N486        C506   1.443       .  S
C487        C488   1.381       .  A
C487        C758   1.471       .  S
C488        C489   1.368       .  A
C488        H491   1.082       .  S
C489        C490   1.381       .  A
C489        H492   1.082       .  S
C490       C1066   1.471       .  S
C493        C494   1.403       .  A
C493        C498   1.403       .  A
C493        H503   1.083       .  S
C494        C495   1.412   1_556  A
C494        C499   1.495       .  S
C495        N500   1.429       .  S
C495        C496   1.402       .  A
C496        C497   1.408   1_554  A
C496        H501   1.083       .  S
C497        C498   1.420       .  A
C498        N502   1.429       .  S
C499        C504   1.415       .  A
C499        C508   1.405   1_556  A
N500        O515   1.262       .  A
N500        O516   1.262   1_554  A
N502        O513   1.262       .  A
N502        O514   1.262   1_556  A
C504        N509   1.429       .  S
C504        C505   1.403       .  A
C505        C506   1.401   1_556  A
C505        H510   1.083       .  S
C506        C507   1.411       .  A
C507        N511   1.429       .  S
C507        C508   1.402       .  A
C508        H512   1.083       .  S
N509        O519   1.262       .  A
N509        O520   1.262       .  A
N511        O517   1.262       .  A
N511        O518   1.262       .  A
C521        C522   1.405       .  A
C521        C526   1.405       .  A
C521        H531   1.083       .  S
C522        C523   1.411       .  A
C522        C527   1.500       .  S
C523        N528   1.429       .  S
C523        C524   1.405       .  A
C524        C525   1.411       .  A
C524        H529   1.083       .  S
C525        C526   1.420       .  A
C526        N530   1.429       .  S
C527        C532   1.412       .  A
C527        C536   1.408       .  A
N528        O543   1.262   1_556  A
N528        O544   1.262       .  A
N530        O541   1.262       .  A
N530        O542   1.262   1_556  A
C532        N537   1.429       .  S
C532        C533   1.401       .  A
C533        C534   1.404       .  A
C533        H538   1.083       .  S
C534        C535   1.416       .  A
C535        N539   1.430   1_556  S
C535        C536   1.410       .  A
C536        H540   1.083   1_556  S
N537        O547   1.262       .  A
N537        O548   1.262       .  A
N539        O545   1.261       .  A
N539        O546   1.262       .  A
C549        C550   1.399       .  A
C549        C554   1.404       .  A
C549        H559   1.084       .  S
C550        C551   1.407   1_554  A
C550        C555   1.485       .  S
C551        N556   1.429       .  S
C551        C552   1.406       .  A
C552        C553   1.410   1_556  A
C552        H557   1.084       .  S
C553        C554   1.421       .  A
C554        N558   1.429       .  S
C555        C560   1.408       .  A
C555        C564   1.404   1_554  A
N556        O571   1.262       .  A
N556        O572   1.262       .  A
N558        O569   1.262       .  A
N558        O570   1.262       .  A
C560        N565   1.428       .  S
C560        C561   1.400       .  A
C561        C562   1.402       .  A
C561        H566   1.083       .  S
C562        C563   1.410   1_554  A
C563        N567   1.428       .  S
C563        C564   1.405       .  A
C564        H568   1.084       .  S
N565        O575   1.262       .  A
N565        O576   1.262       .  A
N567        O573   1.262       .  A
N567        O574   1.262       .  A
C577        C578   1.406       .  A
C577        C582   1.408       .  A
C577        H587   1.084       .  S
C578        C579   1.413   1_556  A
C578        C583   1.496       .  S
C579        N584   1.428       .  S
C579        C580   1.406       .  A
C580        C581   1.402   1_554  A
C580        H585   1.082       .  S
C581        C582   1.408       .  A
C582        N586   1.430       .  S
C583        C588   1.408   1_556  A
C583        C592   1.401       .  A
N584        O599   1.262       .  A
N584        O600   1.262       .  A
N586        O597   1.262       .  A
N586        O598   1.261       .  A
C588        N593   1.428       .  S
C588        C589   1.409       .  A
C589        C590   1.412   1_554  A
C589        H594   1.083       .  S
C590        C591   1.424       .  A
C591        N595   1.428       .  S
C591        C592   1.409       .  A
C592        H596   1.084       .  S
N593        O603   1.262   1_554  A
N593        O604   1.262       .  A
N595        O601   1.261       .  A
N595        O602   1.262   1_556  A
C605        C606   1.402       .  A
C605        C610   1.404       .  A
C605        H615   1.084       .  S
C606        C607   1.405       .  A
C606        C611   1.476       .  S
C607        N612   1.429       .  S
C607        C608   1.397       .  A
C608        C609   1.405       .  A
C608        H613   1.084       .  S
C609        C610   1.411       .  A
C610        N614   1.428       .  S
C611        C616   1.409       .  A
C611        C620   1.399       .  A
N612        O627   1.262       .  A
N612        O628   1.262       .  A
N614        O625   1.262       .  A
N614        O626   1.262       .  A
C616        N621   1.428       .  S
C616        C617   1.399       .  A
C617        C618   1.403       .  A
C617        H622   1.084       .  S
C618        C619   1.414       .  A
C619        N623   1.429       .  S
C619        C620   1.400       .  A
C620        H624   1.084       .  S
N621        O631   1.262       .  A
N621        O632   1.262       .  A
N623        O629   1.262       .  A
N623        O630   1.261       .  A
C633        C634   1.406       .  A
C633        C638   1.403       .  A
C633        H643   1.084       .  S
C634        C635   1.406       .  A
C634        C639   1.484       .  S
C635        N640   1.429       .  S
C635        C636   1.396       .  A
C636        C637   1.408       .  A
C636        H641   1.081       .  S
C637        C638   1.412       .  A
C638        N642   1.427       .  S
C639        C644   1.410       .  A
C639        C648   1.404       .  A
N640        O655   1.262       .  A
N640        O656   1.262       .  A
N642        O653   1.262       .  A
N642        O654   1.262       .  A
C644        N649   1.429       .  S
C644        C645   1.398       .  A
C645        C646   1.399       .  A
C645        H650   1.083       .  S
C646        C647   1.410       .  A
C647        N651   1.430       .  S
C647        C648   1.402       .  A
C648        H652   1.083       .  S
N649        O659   1.262       .  A
N649        O660   1.262       .  A
N651        O657   1.262       .  A
N651        O658   1.262       .  A
C661        C662   1.406       .  A
C661        C666   1.398       .  A
C661        H671   1.083       .  S
C662        C663   1.411       .  A
C662        C667   1.481       .  S
C663        N668   1.429       .  S
C663        C664   1.396       .  A
C664        C665   1.399       .  A
C664        H669   1.084       .  S
C665        C666   1.403       .  A
C666        N670   1.428       .  S
C667        C672   1.407       .  A
C667        C676   1.406       .  A
N668        O683   1.262       .  A
N668        O684   1.262       .  A
N670        O681   1.261       .  A
N670        O682   1.262       .  A
C672        N677   1.430       .  S
C672        C673   1.395       .  A
C673        C674   1.408       .  A
C673        H678   1.083       .  S
C674        C675   1.410       .  A
C675        N679   1.429       .  S
C675        C676   1.401       .  A
C676        H680   1.083       .  S
N677        O687   1.262       .  A
N677        O688   1.262       .  A
N679        O685   1.262       .  A
N679        O686   1.262       .  A
C689        C690   1.398       .  A
C689        C694   1.399       .  A
C689        H699   1.084       .  S
C690        C691   1.407       .  A
C690        C695   1.480       .  S
C691        N696   1.429       .  S
C691        C692   1.406       .  A
C692        C693   1.407       .  A
C692        H697   1.082       .  S
C693        C694   1.414       .  A
C694        N698   1.429       .  S
C695        C700   1.401       .  A
C695        C704   1.406       .  A
N696        O711   1.262       .  A
N696        O712   1.262       .  A
N698        O709   1.262       .  A
N698        O710   1.262       .  A
C700        N705   1.429       .  S
C700        C701   1.393       .  A
C701        C702   1.413       .  A
C701        H706   1.083       .  S
C702        C703   1.415       .  A
C703        N707   1.429       .  S
C703        C704   1.409       .  A
C704        H708   1.084       .  S
N705        O715   1.262       .  A
N705        O716   1.262       .  A
N707        O713   1.262       .  A
N707        O714   1.262       .  A
C717        C718   1.398       .  A
C717        C722   1.401       .  A
C717        H727   1.084       .  S
C718        C719   1.409   1_556  A
C718        C723   1.479       .  S
C719        N724   1.429       .  S
C719        C720   1.402       .  A
C720        C721   1.406   1_554  A
C720        H725   1.084       .  S
C721        C722   1.416       .  A
C722        N726   1.429       .  S
C723        C728   1.407       .  A
C723        C732   1.402   1_556  A
N724        O739   1.262       .  A
N724        O740   1.262       .  A
N726        O737   1.262       .  A
N726        O738   1.262       .  A
C728        N733   1.429       .  S
C728        C729   1.400       .  A
C729        C730   1.404   1_556  A
C729        H734   1.084       .  S
C730        C731   1.409       .  A
C731        N735   1.427       .  S
C731        C732   1.403       .  A
C732        H736   1.084       .  S
N733        O743   1.262       .  A
N733        O744   1.262       .  A
N735        O741   1.262       .  A
N735        O742   1.262       .  A
C745        C746   1.406       .  A
C745        C750   1.404       .  A
C745        H755   1.084       .  S
C746        C747   1.402       .  A
C746        C751   1.481       .  S
C747        N752   1.429       .  S
C747        C748   1.393   1_556  A
C748        C749   1.412   1_554  A
C748        H753   1.083       .  S
C749        C750   1.416       .  A
C750        N754   1.429       .  S
C751        C756   1.407       .  A
C751        C760   1.406   1_556  A
N752        O767   1.262   1_556  A
N752        O768   1.262       .  A
N754        O765   1.262   1_556  A
N754        O766   1.262       .  A
C756        N761   1.428       .  S
C756        C757   1.395       .  A
C757        C758   1.401   1_556  A
C757        H762   1.084       .  S
C758        C759   1.407       .  A
C759        N763   1.429       .  S
C759        C760   1.402       .  A
C760        H764   1.084       .  S
N761        O771   1.262       .  A
N761        O772   1.262       .  A
N763        O769   1.262       .  A
N763        O770   1.262       .  A
C773        C774   1.402       .  A
C773        C778   1.401       .  A
C773        H783   1.084   1_556  S
C774        C775   1.408       .  A
C774        C779   1.482       .  S
C775        N780   1.429       .  S
C775        C776   1.403       .  A
C776        C777   1.405       .  A
C776        H781   1.084       .  S
C777        C778   1.408       .  A
C778        N782   1.427   1_556  S
C779        C784   1.402       .  A
C779        C788   1.405       .  A
N780        O795   1.262       .  A
N780        O796   1.262       .  A
N782        O793   1.262       .  A
N782        O794   1.261       .  A
C784        N789   1.428       .  S
C784        C785   1.396       .  A
C785        C786   1.412       .  A
C785        H790   1.083       .  S
C786        C787   1.417       .  A
C787        N791   1.429       .  S
C787        C788   1.408       .  A
C788        H792   1.084       .  S
N789        O799   1.262   1_556  A
N789        O800   1.262       .  A
N791        O797   1.262       .  A
N791        O798   1.262       .  A
C801        C802   1.398       .  A
C801        C806   1.402       .  A
C801        H811   1.084       .  S
C802        C803   1.407       .  A
C802        C807   1.480       .  S
C803        N808   1.428       .  S
C803        C804   1.401       .  A
C804        C805   1.408       .  A
C804        H809   1.083       .  S
C805        C806   1.421       .  A
C806        N810   1.429       .  S
C807        C812   1.410   1_554  A
C807        C816   1.402       .  A
N808        O823   1.262       .  A
N808        O824   1.261   1_554  A
N810        O821   1.262       .  A
N810        O822   1.262       .  A
C812        N817   1.428       .  S
C812        C813   1.401       .  A
C813        C814   1.399   1_556  A
C813        H818   1.083       .  S
C814        C815   1.409       .  A
C815        N819   1.431       .  S
C815        C816   1.402       .  A
C816        H820   1.084       .  S
N817        O827   1.261       .  A
N817        O828   1.262       .  A
N819        O825   1.262       .  A
N819        O826   1.262       .  A
C829        C830   1.401       .  A
C829        C834   1.405       .  A
C829        H839   1.084       .  S
C830        C831   1.409       .  A
C830        C835   1.486       .  S
C831        N836   1.428       .  S
C831        C832   1.404       .  A
C832        C833   1.407       .  A
C832        H837   1.084       .  S
C833        C834   1.418       .  A
C834        N838   1.429       .  S
C835        C840   1.409       .  A
C835        C844   1.402       .  A
N836        O851   1.262       .  A
N836        O852   1.262       .  A
N838        O849   1.262       .  A
N838        O850   1.262       .  A
C840        N845   1.428       .  S
C840        C841   1.403       .  A
C841        C842   1.403       .  A
C841        H846   1.083       .  S
C842        C843   1.412       .  A
C843        N847   1.428       .  S
C843        C844   1.404       .  A
C844        H848   1.084       .  S
N845        O855   1.262       .  A
N845        O856   1.262       .  A
N847        O853   1.262       .  A
N847        O854   1.261       .  A
C857        C858   1.402       .  A
C857        C862   1.404       .  A
C857        H867   1.084       .  S
C858        C859   1.410       .  A
C858        C863   1.492       .  S
C859        N864   1.430       .  S
C859        C860   1.409       .  A
C860        C861   1.412       .  A
C860        H865   1.084       .  S
C861        C862   1.417       .  A
C862        N866   1.429       .  S
C863        C868   1.411       .  A
C863        C872   1.407       .  A
N864        O879   1.262       .  A
N864        O880   1.262       .  A
N866        O877   1.262       .  A
N866        O878   1.261       .  A
C868        N873   1.428       .  S
C868        C869   1.402       .  A
C869        C870   1.398       .  A
C869        H874   1.082       .  S
C870        C871   1.408       .  A
C871        N875   1.428       .  S
C871        C872   1.407       .  A
C872        H876   1.084       .  S
N873        O883   1.262       .  A
N873        O884   1.262       .  A
N875        O881   1.261       .  A
N875        O882   1.262       .  A
C885        C886   1.400       .  A
C885        C890   1.402       .  A
C885        H895   1.084       .  S
C886        C887   1.405       .  A
C886        C891   1.478       .  S
C887        N892   1.428       .  S
C887        C888   1.398       .  A
C888        C889   1.407       .  A
C888        H893   1.083       .  S
C889        C890   1.419       .  A
C890        N894   1.430       .  S
C891        C896   1.405       .  A
C891        C900   1.398       .  A
N892        O907   1.262       .  A
N892        O908   1.261       .  A
N894        O905   1.262       .  A
N894        O906   1.262       .  A
C896        N901   1.428       .  S
C896        C897   1.399       .  A
C897        C898   1.404       .  A
C897        H902   1.081       .  S
C898        C899   1.417       .  A
C899        N903   1.430       .  S
C899        C900   1.403       .  A
C900        H904   1.084       .  S
N901        O911   1.262       .  A
N901        O912   1.262       .  A
N903        O909   1.261       .  A
N903        O910   1.263       .  A
C913        C914   1.405       .  A
C913        C918   1.410       .  A
C913        H923   1.084       .  S
C914        C915   1.411       .  A
C914        C919   1.499       .  S
C915        N920   1.429       .  S
C915        C916   1.404       .  A
C916        C917   1.407       .  A
C916        H921   1.080       .  S
C917        C918   1.420       .  A
C918        N922   1.429       .  S
C919        C924   1.415       .  A
C919        C928   1.407       .  A
N920        O935   1.262       .  A
N920        O936   1.262       .  A
N922        O933   1.262       .  A
N922        O934   1.262       .  A
C924        N929   1.428       .  S
C924        C925   1.407       .  A
C925        C926   1.401       .  A
C925        H930   1.082       .  S
C926        C927   1.406       .  A
C927        N931   1.428       .  S
C927        C928   1.404       .  A
C928        H932   1.083       .  S
N929        O939   1.262       .  A
N929        O940   1.262       .  A
N931        O937   1.261       .  A
N931        O938   1.261       .  A
C941        C942   1.398       .  A
C941        C946   1.399       .  A
C941        H951   1.084       .  S
C942        C943   1.406       .  A
C942        C947   1.470       .  S
C943        N948   1.428       .  S
C943        C944   1.395       .  A
C944        C945   1.403       .  A
C944        H949   1.084       .  S
C945        C946   1.418       .  A
C946        N950   1.430       .  S
C947        C952   1.405       .  A
C947        C956   1.402       .  A
N948        O963   1.262       .  A
N948        O964   1.262       .  A
N950        O961   1.262       .  A
N950        O962   1.262       .  A
C952        N957   1.428       .  S
C952        C953   1.397       .  A
C953        C954   1.402       .  A
C953        H958   1.084       .  S
C954        C955   1.407       .  A
C955        N959   1.428       .  S
C955        C956   1.399       .  A
C956        H960   1.084       .  S
N957        O967   1.262       .  A
N957        O968   1.262       .  A
N959        O965   1.262       .  A
N959        O966   1.262       .  A
C969        C970   1.405       .  A
C969        C974   1.404       .  A
C969        H979   1.084       .  S
C970        C971   1.402       .  A
C970        C975   1.480       .  S
C971        N976   1.429       .  S
C971        C972   1.393       .  A
C972        C973   1.412       .  A
C972        H977   1.083       .  S
C973        C974   1.416       .  A
C974        N978   1.429       .  S
C975        C980   1.407       .  A
C975        C984   1.404       .  A
N976        O991   1.262       .  A
N976        O992   1.262       .  A
N978        O989   1.262       .  A
N978        O990   1.261       .  A
C980        N985   1.428       .  S
C980        C981   1.397       .  A
C981        C982   1.402       .  A
C981        H986   1.084       .  S
C982        C983   1.410       .  A
C983        N987   1.429       .  S
C983        C984   1.399       .  A
C984        H988   1.084       .  S
N985        O995   1.262       .  A
N985        O996   1.262       .  A
N987        O993   1.262       .  A
N987        O994   1.262       .  A
C997        C998   1.399       .  A
C997       C1002   1.396       .  A
C997       H1007   1.084       .  S
C998        C999   1.409       .  A
C998       C1003   1.476       .  S
C999       N1004   1.428       .  S
C999       C1000   1.402       .  A
C1000      C1001   1.402       .  A
C1000      H1005   1.084       .  S
C1001      C1002   1.410       .  A
C1002      N1006   1.430       .  S
C1003      C1008   1.405       .  A
C1003      C1012   1.404       .  A
N1004      O1019   1.262       .  A
N1004      O1020   1.262       .  A
N1006      O1017   1.262       .  A
N1006      O1018   1.262       .  A
C1008      N1013   1.431       .  S
C1008      C1009   1.399       .  A
C1009      C1010   1.408       .  A
C1009      H1014   1.084       .  S
C1010      C1011   1.410       .  A
C1011      N1015   1.429       .  S
C1011      C1012   1.404       .  A
C1012      H1016   1.084       .  S
N1013      O1023   1.262       .  A
N1013      O1024   1.262       .  A
N1015      O1021   1.262       .  A
N1015      O1022   1.262       .  A
C1025      C1026   1.407       .  A
C1025      C1030   1.409       .  A
C1025      H1035   1.084       .  S
C1026      C1027   1.407       .  A
C1026      C1031   1.488       .  S
C1027      N1032   1.428       .  S
C1027      C1028   1.400       .  A
C1028      C1029   1.408       .  A
C1028      H1033   1.084       .  S
C1029      C1030   1.413       .  A
C1030      N1034   1.429       .  S
C1031      C1036   1.411       .  A
C1031      C1040   1.400       .  A
N1032      O1047   1.262       .  A
N1032      O1048   1.262       .  A
N1034      O1045   1.262       .  A
N1034      O1046   1.262       .  A
C1036      N1041   1.427       .  S
C1036      C1037   1.406       .  A
C1037      C1038   1.403       .  A
C1037      H1042   1.083       .  S
C1038      C1039   1.417       .  A
C1039      N1043   1.430       .  S
C1039      C1040   1.402       .  A
C1040      H1044   1.084       .  S
N1041      O1051   1.262       .  A
N1041      O1052   1.262       .  A
N1043      O1049   1.262       .  A
N1043      O1050   1.262       .  A
C1053      C1054   1.405       .  A
C1053      C1058   1.402       .  A
C1053      H1063   1.083       .  S
C1054      C1055   1.403   1_554  A
C1054      C1059   1.479       .  S
C1055      N1060   1.429       .  S
C1055      C1056   1.393       .  A
C1056      C1057   1.411       .  A
C1056      H1061   1.083       .  S
C1057      C1058   1.414   1_556  A
C1058      N1062   1.428       .  S
C1059      C1064   1.408       .  A
C1059      C1068   1.405   1_554  A
N1060      O1075   1.262       .  A
N1060      O1076   1.262   1_556  A
N1062      O1073   1.262       .  A
N1062      O1074   1.261   1_554  A
C1064      N1069   1.429       .  S
C1064      C1065   1.394       .  A
C1065      C1066   1.400       .  A
C1065      H1070   1.084       .  S
C1066      C1067   1.410   1_554  A
C1067      N1071   1.429       .  S
C1067      C1068   1.401       .  A
C1068      H1072   1.083       .  S
N1069      O1079   1.262       .  A
N1069      O1080   1.262       .  A
N1071      O1077   1.262       .  A
N1071      O1078   1.262       .  A
C1081      C1082   1.401       .  A
C1081      C1086   1.395       .  A
C1081      H1091   1.084   1_556  S
C1082      C1083   1.417       .  A
C1082      C1087   1.489       .  S
C1083      N1088   1.429       .  S
C1083      C1084   1.408       .  A
C1084      C1085   1.401       .  A
C1084      H1089   1.084       .  S
C1085      C1086   1.410       .  A
C1086      N1090   1.430   1_556  S
C1087      C1092   1.415       .  A
C1087      C1096   1.408   1_556  A
N1088      O1103   1.262       .  A
N1088      O1104   1.262       .  A
N1090      O1101   1.262       .  A
N1090      O1102   1.261       .  A
C1092      N1097   1.429       .  S
C1092      C1093   1.403       .  A
C1093      C1094   1.399       .  A
C1093      H1098   1.084       .  S
C1094      C1095   1.404   1_556  A
C1095      N1099   1.429       .  S
C1095      C1096   1.401       .  A
C1096      H1100   1.084       .  S
N1097      O1107   1.262       .  A
N1097      O1108   1.262       .  A
N1099      O1105   1.262       .  A
N1099      O1106   1.261       .  A
C1109      C1110   1.401       .  A
C1109      C1114   1.400       .  A
C1109      H1119   1.084       .  S
C1110      C1111   1.409   1_554  A
C1110      C1115   1.479       .  S
C1111      N1116   1.428       .  S
C1111      C1112   1.403       .  A
C1112      C1113   1.402   1_556  A
C1112      H1117   1.083       .  S
C1113      C1114   1.410       .  A
C1114      N1118   1.429       .  S
C1115      C1120   1.403       .  A
C1115      C1124   1.403   1_554  A
N1116      O1131   1.262       .  A
N1116      O1132   1.262       .  A
N1118      O1129   1.262       .  A
N1118      O1130   1.262       .  A
C1120      N1125   1.429       .  S
C1120      C1121   1.398       .  A
C1121      C1122   1.412   1_554  A
C1121      H1126   1.084       .  S
C1122      C1123   1.416       .  A
C1123      N1127   1.429       .  S
C1123      C1124   1.405       .  A
C1124      H1128   1.084       .  S
N1125      O1135   1.262       .  A
N1125      O1136   1.262       .  A
N1127      O1133   1.262       .  A
N1127      O1134   1.262       .  A
C1137      C1138   1.403       .  A
C1137      C1142   1.397       .  A
C1137      H1147   1.083       .  S
C1138      C1139   1.414   1_556  A
C1138      C1143   1.489       .  S
C1139      N1144   1.429       .  S
C1139      C1140   1.401       .  A
C1140      C1141   1.401   1_554  A
C1140      H1145   1.084       .  S
C1141      C1142   1.412       .  A
C1142      N1146   1.430       .  S
C1143      C1148   1.412       .  A
C1143      C1152   1.403   1_556  A
N1144      O1159   1.262       .  A
N1144      O1160   1.262       .  A
N1146      O1157   1.262       .  A
N1146      O1158   1.261       .  A
C1148      N1153   1.430       .  S
C1148      C1149   1.396       .  A
C1149      C1150   1.406   1_556  A
C1149      H1154   1.083       .  S
C1150      C1151   1.419       .  A
C1151      N1155   1.431       .  S
C1151      C1152   1.403       .  A
C1152      H1156   1.083       .  S
N1153      O1163   1.262       .  A
N1153      O1164   1.262   1_556  A
N1155      O1161   1.262       .  A
N1155      O1162   1.262       .  A
C1165      C1166   1.402       .  A
C1165      C1170   1.402       .  A
C1165      H1175   1.084       .  S
C1166      C1167   1.412       .  A
C1166      C1171   1.487       .  S
C1167      N1172   1.429       .  S
C1167      C1168   1.403       .  A
C1168      C1169   1.404       .  A
C1168      H1173   1.084       .  S
C1169      C1170   1.412       .  A
C1170      N1174   1.427       .  S
C1171      C1176   1.411       .  A
C1171      C1180   1.403       .  A
N1172      O1187   1.262       .  A
N1172      O1188   1.262       .  A
N1174      O1185   1.262       .  A
N1174      O1186   1.261       .  A
C1176      N1181   1.429       .  S
C1176      C1177   1.401       .  A
C1177      C1178   1.403       .  A
C1177      H1182   1.084       .  S
C1178      C1179   1.412       .  A
C1179      N1183   1.428       .  S
C1179      C1180   1.404       .  A
C1180      H1184   1.084       .  S
N1181      O1191   1.262       .  A
N1181      O1192   1.262       .  A
N1183      O1189   1.262       .  A
N1183      O1190   1.262       .  A
C1193      C1194   1.404       .  A
C1193      C1198   1.403       .  A
C1193      H1203   1.084       .  S
C1194      C1195   1.410       .  A
C1194      C1199   1.490       .  S
C1195      N1200   1.429       .  S
C1195      C1196   1.399       .  A
C1196      C1197   1.406       .  A
C1196      H1201   1.084       .  S
C1197      C1198   1.417       .  A
C1198      N1202   1.429       .  S
C1199      C1204   1.413       .  A
C1199      C1208   1.404       .  A
N1200      O1215   1.262       .  A
N1200      O1216   1.261       .  A
N1202      O1213   1.262       .  A
N1202      O1214   1.262       .  A
C1204      N1209   1.429       .  S
C1204      C1205   1.402       .  A
C1205      C1206   1.402       .  A
C1205      H1210   1.083       .  S
C1206      C1207   1.410       .  A
C1207      N1211   1.429       .  S
C1207      C1208   1.400       .  A
C1208      H1212   1.083       .  S
N1209      O1219   1.262       .  A
N1209      O1220   1.262       .  A
N1211      O1217   1.261       .  A
N1211      O1218   1.262       .  A
C1221      C1222   1.401       .  A
C1221      C1226   1.406       .  A
C1221      H1231   1.084       .  S
C1222      C1223   1.410       .  A
C1222      C1227   1.493       .  S
C1223      N1228   1.429       .  S
C1223      C1224   1.407       .  A
C1224      C1225   1.412       .  A
C1224      H1229   1.083       .  S
C1225      C1226   1.421       .  A
C1226      N1230   1.428       .  S
C1227      C1232   1.410       .  A
C1227      C1236   1.404       .  A
N1228      O1243   1.262       .  A
N1228      O1244   1.262       .  A
N1230      O1241   1.262       .  A
N1230      O1242   1.262       .  A
C1232      N1237   1.428       .  S
C1232      C1233   1.404       .  A
C1233      C1234   1.405       .  A
C1233      H1238   1.083       .  S
C1234      C1235   1.414       .  A
C1235      N1239   1.428       .  S
C1235      C1236   1.408       .  A
C1236      H1240   1.084       .  S
N1237      O1247   1.262       .  A
N1237      O1248   1.262       .  A
N1239      O1245   1.262       .  A
N1239      O1246   1.262       .  A
C1249      C1250   1.403       .  A
C1249      C1254   1.408       .  A
C1249      H1259   1.084       .  S
C1250      C1251   1.408       .  A
C1250      C1255   1.487       .  S
C1251      N1256   1.429       .  S
C1251      C1252   1.400       .  A
C1252      C1253   1.408       .  A
C1252      H1257   1.082       .  S
C1253      C1254   1.419       .  A
C1254      N1258   1.429       .  S
C1255      C1260   1.412       .  A
C1255      C1264   1.404       .  A
N1256      O1271   1.262       .  A
N1256      O1272   1.262       .  A
N1258      O1269   1.262       .  A
N1258      O1270   1.262       .  A
C1260      N1265   1.428       .  S
C1260      C1261   1.406       .  A
C1261      C1262   1.401       .  A
C1261      H1266   1.082       .  S
C1262      C1263   1.405       .  A
C1263      N1267   1.427       .  S
C1263      C1264   1.401       .  A
C1264      H1268   1.084       .  S
N1265      O1275   1.262       .  A
N1265      O1276   1.262       .  A
N1267      O1273   1.261       .  A
N1267      O1274   1.261       .  A
C1277      C1278   1.398   1_545  A
C1277      C1282   1.400       .  A
C1277      H1287   1.084       .  S
C1278      C1279   1.411       .  A
C1278      C1283   1.480       .  S
C1279      N1284   1.429       .  S
C1279      C1280   1.403       .  A
C1280      C1281   1.405   1_565  A
C1280      H1285   1.084       .  S
C1281      C1282   1.417       .  A
C1282      N1286   1.428       .  S
C1283      C1288   1.410       .  A
C1283      C1292   1.401   1_565  A
N1284      O1299   1.262       .  A
N1284      O1300   1.261       .  A
N1286      O1297   1.262       .  A
N1286      O1298   1.262       .  A
C1288      N1293   1.429       .  S
C1288      C1289   1.402       .  A
C1289      C1290   1.400       .  A
C1289      H1294   1.083       .  S
C1290      C1291   1.409   1_565  A
C1291      N1295   1.429       .  S
C1291      C1292   1.400       .  A
C1292      H1296   1.084       .  S
N1293      O1303   1.262       .  A
N1293      O1304   1.262       .  A
N1295      O1301   1.262       .  A
N1295      O1302   1.262       .  A
C1305      C1306   1.397       .  A
C1305      C1310   1.401       .  A
C1305      H1315   1.084       .  S
C1306      C1307   1.405       .  A
C1306      C1311   1.478       .  S
C1307      N1312   1.428   1_565  S
C1307      C1308   1.401       .  A
C1308      C1309   1.404       .  A
C1308      H1313   1.077       .  S
C1309      C1310   1.421       .  A
C1310      N1314   1.430       .  S
C1311      C1316   1.405       .  A
C1311      C1320   1.402       .  A
N1312      O1327   1.262       .  A
N1312      O1328   1.262       .  A
N1314      O1325   1.262       .  A
N1314      O1326   1.263       .  A
C1316      N1321   1.429       .  S
C1316      C1317   1.402       .  A
C1317      C1318   1.410       .  A
C1317      H1322   1.084       .  S
C1318      C1319   1.410       .  A
C1319      N1323   1.426   1_565  S
C1319      C1320   1.403       .  A
C1320      H1324   1.084   1_565  S
N1321      O1331   1.262       .  A
N1321      O1332   1.262       .  A
N1323      O1329   1.261       .  A
N1323      O1330   1.262       .  A
C1333      C1334   1.405       .  A
C1333      C1338   1.404       .  A
C1333      H1343   1.084       .  S
C1334      C1335   1.408   1_565  A
C1334      C1339   1.482   1_565  S
C1335      N1340   1.429       .  S
C1335      C1336   1.399       .  A
C1336      C1337   1.404   1_545  A
C1336      H1341   1.084       .  S
C1337      C1338   1.408       .  A
C1338      N1342   1.428       .  S
C1339      C1344   1.410   1_545  A
C1339      C1348   1.399       .  A
N1340      O1355   1.262       .  A
N1340      O1356   1.262       .  A
N1342      O1353   1.262       .  A
N1342      O1354   1.262       .  A
C1344      N1349   1.430       .  S
C1344      C1345   1.401       .  A
C1345      C1346   1.407   1_565  A
C1345      H1350   1.084       .  S
C1346      C1347   1.420       .  A
C1347      N1351   1.429       .  S
C1347      C1348   1.402       .  A
C1348      H1352   1.084       .  S
N1349      O1359   1.262       .  A
N1349      O1360   1.262       .  A
N1351      O1357   1.262       .  A
N1351      O1358   1.262       .  A
C1361      C1362   1.409       .  A
C1361      C1366   1.405       .  A
C1361      H1371   1.083       .  S
C1362      C1363   1.410       .  A
C1362      C1367   1.490       .  S
C1363      N1368   1.429       .  S
C1363      C1364   1.398       .  A
C1364      C1365   1.404       .  A
C1364      H1369   1.084       .  S
C1365      C1366   1.408       .  A
C1366      N1370   1.429       .  S
C1367      C1372   1.412       .  A
C1367      C1376   1.404       .  A
N1368      O1383   1.262       .  A
N1368      O1384   1.262       .  A
N1370      O1381   1.261       .  A
N1370      O1382   1.262       .  A
C1372      N1377   1.429       .  S
C1372      C1373   1.403       .  A
C1373      C1374   1.402       .  A
C1373      H1378   1.083       .  S
C1374      C1375   1.410       .  A
C1375      N1379   1.428       .  S
C1375      C1376   1.403       .  A
C1376      H1380   1.083       .  S
N1377      O1387   1.262       .  A
N1377      O1388   1.262       .  A
N1379      O1385   1.262       .  A
N1379      O1386   1.262       .  A
C1389      C1390   1.400       .  A
C1389      C1394   1.399       .  A
C1389      H1399   1.084       .  S
C1390      C1391   1.410       .  A
C1390      C1395   1.478       .  S
C1391      N1396   1.428       .  S
C1391      C1392   1.400       .  A
C1392      C1393   1.401       .  A
C1392      H1397   1.084       .  S
C1393      C1394   1.413       .  A
C1394      N1398   1.429       .  S
C1395      C1400   1.407       .  A
C1395      C1404   1.403       .  A
N1396      O1411   1.262       .  A
N1396      O1412   1.262       .  A
N1398      O1409   1.262       .  A
N1398      O1410   1.262       .  A
C1400      N1405   1.429       .  S
C1400      C1401   1.397       .  A
C1401      C1402   1.404       .  A
C1401      H1406   1.084       .  S
C1402      C1403   1.408       .  A
C1403      N1407   1.428       .  S
C1403      C1404   1.403       .  A
C1404      H1408   1.084       .  S
N1405      O1415   1.262       .  A
N1405      O1416   1.262       .  A
N1407      O1413   1.262       .  A
N1407      O1414   1.262       .  A
C1417      C1418   1.403       .  A
C1417      C1422   1.403       .  A
C1417      H1427   1.084       .  S
C1418      C1419   1.402       .  A
C1418      C1423   1.472       .  S
C1419      N1424   1.429       .  S
C1419      C1420   1.394       .  A
C1420      C1421   1.408       .  A
C1420      H1425   1.084       .  S
C1421      C1422   1.413       .  A
C1422      N1426   1.429       .  S
C1423      C1428   1.407       .  A
C1423      C1432   1.400       .  A
N1424      O1439   1.262       .  A
N1424      O1440   1.262       .  A
N1426      O1437   1.262       .  A
N1426      O1438   1.262       .  A
C1428      N1433   1.428       .  S
C1428      C1429   1.400       .  A
C1429      C1430   1.402       .  A
C1429      H1434   1.083       .  S
C1430      C1431   1.409       .  A
C1431      N1435   1.429       .  S
C1431      C1432   1.396       .  A
C1432      H1436   1.084       .  S
N1433      O1443   1.262       .  A
N1433      O1444   1.262       .  A
N1435      O1441   1.262       .  A
N1435      O1442   1.262       .  A
C1445      C1446   1.403       .  A
C1445      C1450   1.402       .  A
C1445      H1455   1.083       .  S
C1446      C1447   1.405       .  A
C1446      C1451   1.480       .  S
C1447      N1452   1.430       .  S
C1447      C1448   1.394       .  A
C1448      C1449   1.411       .  A
C1448      H1453   1.083       .  S
C1449      C1450   1.416       .  A
C1450      N1454   1.428       .  S
C1451      C1456   1.410       .  A
C1451      C1460   1.403       .  A
N1452      O1467   1.262       .  A
N1452      O1468   1.262       .  A
N1454      O1465   1.262       .  A
N1454      O1466   1.261       .  A
C1456      N1461   1.429       .  S
C1456      C1457   1.398       .  A
C1457      C1458   1.402       .  A
C1457      H1462   1.084       .  S
C1458      C1459   1.407       .  A
C1459      N1463   1.427       .  S
C1459      C1460   1.397       .  A
C1460      H1464   1.083       .  S
N1461      O1471   1.262       .  A
N1461      O1472   1.262       .  A
N1463      O1469   1.262       .  A
N1463      O1470   1.262       .  A
C1473      C1474   1.406   1_545  A
C1473      C1478   1.405       .  A
C1473      H1483   1.082       .  S
C1474      C1475   1.416       .  A
C1474      C1479   1.500       .  S
C1475      N1480   1.429       .  S
C1475      C1476   1.403       .  A
C1476      C1477   1.404       .  A
C1476      H1481   1.084       .  S
C1477      C1478   1.416   1_565  A
C1478      N1482   1.430       .  S
C1479      C1484   1.417   1_565  A
C1479      C1488   1.406       .  A
N1480      O1495   1.262       .  A
N1480      O1496   1.262       .  A
N1482      O1493   1.262       .  A
N1482      O1494   1.262       .  A
C1484      N1489   1.429       .  S
C1484      C1485   1.405       .  A
C1485      C1486   1.400   1_545  A
C1485      H1490   1.081       .  S
C1486      C1487   1.409       .  A
C1487      N1491   1.428       .  S
C1487      C1488   1.403       .  A
C1488      H1492   1.083       .  S
N1489      O1499   1.262       .  A
N1489      O1500   1.262       .  A
N1491      O1497   1.262       .  A
N1491      O1498   1.262       .  A
C1501      C1502   1.406       .  A
C1501      C1506   1.405       .  A
C1501      H1511   1.084       .  S
C1502      C1503   1.410   1_565  A
C1502      C1507   1.488       .  S
C1503      N1508   1.428       .  S
C1503      C1504   1.402   1_545  A
C1504      C1505   1.401       .  A
C1504      H1509   1.082   1_565  S
C1505      C1506   1.406       .  A
C1506      N1510   1.428       .  S
C1507      C1512   1.410       .  A
C1507      C1516   1.399       .  A
N1508      O1523   1.262       .  A
N1508      O1524   1.261       .  A
N1510      O1521   1.261       .  A
N1510      O1522   1.262       .  A
C1512      N1517   1.429       .  S
C1512      C1513   1.406       .  A
C1513      C1514   1.410       .  A
C1513      H1518   1.084   1_565  S
C1514      C1515   1.421       .  A
C1515      N1519   1.429       .  S
C1515      C1516   1.404       .  A
C1516      H1520   1.084       .  S
N1517      O1527   1.262       .  A
N1517      O1528   1.262   1_565  A
N1519      O1525   1.262       .  A
N1519      O1526   1.262       .  A
C1529      C1530   1.400       .  A
C1529      C1534   1.404       .  A
C1529      H1539   1.084       .  S
C1530      C1531   1.408   1_565  A
C1530      C1535   1.486       .  S
C1531      N1536   1.429       .  S
C1531      C1532   1.404       .  A
C1532      C1533   1.409   1_545  A
C1532      H1537   1.084       .  S
C1533      C1534   1.416       .  A
C1534      N1538   1.427       .  S
C1535      C1540   1.407       .  A
C1535      C1544   1.403   1_565  A
N1536      O1551   1.262       .  A
N1536      O1552   1.262       .  A
N1538      O1549   1.261       .  A
N1538      O1550   1.262       .  A
C1540      N1545   1.428       .  S
C1540      C1541   1.400       .  A
C1541      C1542   1.406       .  A
C1541      H1546   1.082       .  S
C1542      C1543   1.417   1_565  A
C1543      N1547   1.428       .  S
C1543      C1544   1.408       .  A
C1544      H1548   1.084       .  S
N1545      O1555   1.262       .  A
N1545      O1556   1.262       .  A
N1547      O1553   1.262       .  A
N1547      O1554   1.262       .  A
C1557      C1558   1.397   1_545  A
C1557      C1562   1.393       .  A
C1557      H1567   1.083       .  S
C1558      C1559   1.416       .  A
C1558      C1563   1.482       .  S
C1559      N1564   1.429       .  S
C1559      C1560   1.400       .  A
C1560      C1561   1.400       .  A
C1560      H1565   1.084       .  S
C1561      C1562   1.418   1_565  A
C1562      N1566   1.430       .  S
C1563      C1568   1.416   1_565  A
C1563      C1572   1.403       .  A
N1564      O1579   1.262       .  A
N1564      O1580   1.261       .  A
N1566      O1577   1.262       .  A
N1566      O1578   1.262       .  A
C1568      N1573   1.429       .  S
C1568      C1569   1.397       .  A
C1569      C1570   1.397   1_545  A
C1569      H1574   1.083       .  S
C1570      C1571   1.405       .  A
C1571      N1575   1.428       .  S
C1571      C1572   1.396       .  A
C1572      H1576   1.083       .  S
N1573      O1583   1.262       .  A
N1573      O1584   1.262       .  A
N1575      O1581   1.262       .  A
N1575      O1582   1.262       .  A
C1585      C1586   1.402   1_545  A
C1585      C1590   1.406       .  A
C1585      H1595   1.084       .  S
C1586      C1587   1.407       .  A
C1586      C1591   1.484       .  S
C1587      N1592   1.429       .  S
C1587      C1588   1.401       .  A
C1588      C1589   1.404       .  A
C1588      H1593   1.083       .  S
C1589      C1590   1.414   1_565  A
C1590      N1594   1.429       .  S
C1591      C1596   1.404       .  A
C1591      C1600   1.401       .  A
N1592      O1607   1.261       .  A
N1592      O1608   1.262       .  A
N1594      O1605   1.262       .  A
N1594      O1606   1.262       .  A
C1596      N1601   1.428       .  S
C1596      C1597   1.401       .  A
C1597      C1598   1.411       .  A
C1597      H1602   1.083       .  S
C1598      C1599   1.421       .  A
C1599      N1603   1.429       .  S
C1599      C1600   1.404       .  A
C1600      H1604   1.084       .  S
N1601      O1611   1.262   1_565  A
N1601      O1612   1.262       .  A
N1603      O1609   1.262   1_565  A
N1603      O1610   1.262       .  A
C1613      C1614   1.404       .  A
C1613      C1618   1.404       .  A
C1613      H1623   1.084       .  S
C1614      C1615   1.407       .  A
C1614      C1619   1.478       .  S
C1615      N1620   1.429       .  S
C1615      C1616   1.395       .  A
C1616      C1617   1.402       .  A
C1616      H1621   1.084       .  S
C1617      C1618   1.409       .  A
C1618      N1622   1.428       .  S
C1619      C1624   1.410       .  A
C1619      C1628   1.401       .  A
N1620      O1635   1.262       .  A
N1620      O1636   1.262       .  A
N1622      O1633   1.262       .  A
N1622      O1634   1.262       .  A
C1624      N1629   1.429       .  S
C1624      C1625   1.399       .  A
C1625      C1626   1.401       .  A
C1625      H1630   1.084       .  S
C1626      C1627   1.411       .  A
C1627      N1631   1.430       .  S
C1627      C1628   1.399       .  A
C1628      H1632   1.084       .  S
N1629      O1639   1.262       .  A
N1629      O1640   1.262       .  A
N1631      O1637   1.262       .  A
N1631      O1638   1.262       .  A
C1641      C1642   1.409       .  A
C1641      C1646   1.404       .  A
C1641      H1651   1.083       .  S
C1642      C1643   1.413       .  A
C1642      C1647   1.492       .  S
C1643      N1648   1.428       .  S
C1643      C1644   1.399       .  A
C1644      C1645   1.399       .  A
C1644      H1649   1.084       .  S
C1645      C1646   1.405       .  A
C1646      N1650   1.429       .  S
C1647      C1652   1.407       .  A
C1647      C1656   1.406       .  A
N1648      O1663   1.262       .  A
N1648      O1664   1.262       .  A
N1650      O1661   1.262       .  A
N1650      O1662   1.262       .  A
C1652      N1657   1.429       .  S
C1652      C1653   1.400       .  A
C1653      C1654   1.411       .  A
C1653      H1658   1.084       .  S
C1654      C1655   1.413       .  A
C1655      N1659   1.426       .  S
C1655      C1656   1.406       .  A
C1656      H1660   1.083       .  S
N1657      O1667   1.262       .  A
N1657      O1668   1.262       .  A
N1659      O1665   1.262       .  A
N1659      O1666   1.262       .  A
C1669      C1670   1.399       .  A
C1669      C1674   1.400       .  A
C1669      H1679   1.084       .  S
C1670      C1671   1.412       .  A
C1670      C1675   1.485       .  S
C1671      N1676   1.429       .  S
C1671      C1672   1.399       .  A
C1672      C1673   1.406       .  A
C1672      H1677   1.083       .  S
C1673      C1674   1.420       .  A
C1674      N1678   1.429       .  S
C1675      C1680   1.413       .  A
C1675      C1684   1.401       .  A
N1676      O1691   1.262       .  A
N1676      O1692   1.262       .  A
N1678      O1689   1.262       .  A
N1678      O1690   1.262       .  A
C1680      N1685   1.428       .  S
C1680      C1681   1.402       .  A
C1681      C1682   1.400       .  A
C1681      H1686   1.082       .  S
C1682      C1683   1.413       .  A
C1683      N1687   1.430       .  S
C1683      C1684   1.397       .  A
C1684      H1688   1.083       .  S
N1685      O1695   1.262       .  A
N1685      O1696   1.262       .  A
N1687      O1693   1.262       .  A
N1687      O1694   1.262       .  A
C1697      C1698   1.407       .  A
C1697      C1702   1.407       .  A
C1697      H1707   1.083       .  S
C1698      C1699   1.408       .  A
C1698      C1703   1.493       .  S
C1699      N1704   1.430       .  S
C1699      C1700   1.398       .  A
C1700      C1701   1.411       .  A
C1700      H1705   1.083       .  S
C1701      C1702   1.416       .  A
C1702      N1706   1.429       .  S
C1703      C1708   1.412       .  A
C1703      C1712   1.407       .  A
N1704      O1719   1.262       .  A
N1704      O1720   1.262       .  A
N1706      O1717   1.262       .  A
N1706      O1718   1.261       .  A
C1708      N1713   1.429       .  S
C1708      C1709   1.401       .  A
C1709      C1710   1.403       .  A
C1709      H1714   1.084       .  S
C1710      C1711   1.407       .  A
C1711      N1715   1.428       .  S
C1711      C1712   1.403       .  A
C1712      H1716   1.083       .  S
N1713      O1723   1.262       .  A
N1713      O1724   1.262       .  A
N1715      O1721   1.262       .  A
N1715      O1722   1.262       .  A
C1725      C1726   1.405       .  A
C1725      C1730   1.405       .  A
C1725      H1735   1.083   1_565  S
C1726      C1727   1.411       .  A
C1726      C1731   1.493       .  S
C1727      N1732   1.429       .  S
C1727      C1728   1.401       .  A
C1728      C1729   1.403       .  A
C1728      H1733   1.084       .  S
C1729      C1730   1.412       .  A
C1730      N1734   1.429   1_565  S
C1731      C1736   1.408       .  A
C1731      C1740   1.406       .  A
N1732      O1747   1.262       .  A
N1732      O1748   1.262       .  A
N1734      O1745   1.262       .  A
N1734      O1746   1.262       .  A
C1736      N1741   1.429       .  S
C1736      C1737   1.401       .  A
C1737      C1738   1.410       .  A
C1737      H1742   1.084   1_565  S
C1738      C1739   1.417       .  A
C1739      N1743   1.429       .  S
C1739      C1740   1.406       .  A
C1740      H1744   1.083       .  S
N1741      O1751   1.262   1_565  A
N1741      O1752   1.262       .  A
N1743      O1749   1.262       .  A
N1743      O1750   1.262       .  A
C1753      C1754   1.402   1_545  A
C1753      C1758   1.404       .  A
C1753      H1763   1.084       .  S
C1754      C1755   1.402       .  A
C1754      C1759   1.477       .  S
C1755      N1760   1.429       .  S
C1755      C1756   1.397       .  A
C1756      C1757   1.412       .  A
C1756      H1761   1.083       .  S
C1757      C1758   1.417   1_565  A
C1758      N1762   1.429       .  S
C1759      C1764   1.409   1_565  A
C1759      C1768   1.400       .  A
N1760      O1775   1.262       .  A
N1760      O1776   1.262   1_565  A
N1762      O1773   1.262       .  A
N1762      O1774   1.262   1_545  A
C1764      N1769   1.428       .  S
C1764      C1765   1.403       .  A
C1765      C1766   1.402   1_545  A
C1765      H1770   1.084       .  S
C1766      C1767   1.411       .  A
C1767      N1771   1.429       .  S
C1767      C1768   1.399       .  A
C1768      H1772   1.084       .  S
N1769      O1779   1.262       .  A
N1769      O1780   1.262       .  A
N1771      O1777   1.262       .  A
N1771      O1778   1.262       .  A
C1781      C1782   1.404       .  A
C1781      C1786   1.403       .  A
C1781      H1791   1.084       .  S
C1782      C1783   1.406   1_565  A
C1782      C1787   1.480       .  S
C1783      N1788   1.429       .  S
C1783      C1784   1.395       .  A
C1784      C1785   1.406   1_545  A
C1784      H1789   1.084       .  S
C1785      C1786   1.413       .  A
C1786      N1790   1.429       .  S
C1787      C1792   1.411       .  A
C1787      C1796   1.402   1_565  A
N1788      O1803   1.262       .  A
N1788      O1804   1.262   1_545  A
N1790      O1801   1.262       .  A
N1790      O1802   1.262       .  A
C1792      N1797   1.429       .  S
C1792      C1793   1.401       .  A
C1793      C1794   1.400       .  A
C1793      H1798   1.083       .  S
C1794      C1795   1.408   1_565  A
C1795      N1799   1.430       .  S
C1795      C1796   1.397       .  A
C1796      H1800   1.084       .  S
N1797      O1807   1.262       .  A
N1797      O1808   1.262       .  A
N1799      O1805   1.262       .  A
N1799      O1806   1.261       .  A
C1809      C1810   1.400       .  A
C1809      C1814   1.400       .  A
C1809      H1819   1.084       .  S
C1810      C1811   1.404   1_565  A
C1810      C1815   1.472       .  S
C1811      N1816   1.429       .  S
C1811      C1812   1.397       .  A
C1812      C1813   1.410   1_545  A
C1812      H1817   1.084       .  S
C1813      C1814   1.415       .  A
C1814      N1818   1.429       .  S
C1815      C1820   1.407   1_565  A
C1815      C1824   1.403       .  A
N1816      O1831   1.262       .  A
N1816      O1832   1.262       .  A
N1818      O1829   1.262       .  A
N1818      O1830   1.262       .  A
C1820      N1825   1.429       .  S
C1820      C1821   1.397       .  A
C1821      C1822   1.399   1_545  A
C1821      H1826   1.084       .  S
C1822      C1823   1.406       .  A
C1823      N1827   1.430       .  S
C1823      C1824   1.399       .  A
C1824      H1828   1.084       .  S
N1825      O1835   1.262       .  A
N1825      O1836   1.261       .  A
N1827      O1833   1.262       .  A
N1827      O1834   1.261       .  A
C1837      C1838   1.401       .  A
C1837      C1842   1.406       .  A
C1837      H1847   1.084       .  S
C1838      C1839   1.407       .  A
C1838      C1843   1.488       .  S
C1839      N1844   1.428       .  S
C1839      C1840   1.404       .  A
C1840      C1841   1.410       .  A
C1840      H1845   1.083       .  S
C1841      C1842   1.421       .  A
C1842      N1846   1.429       .  S
C1843      C1848   1.409       .  A
C1843      C1852   1.405       .  A
N1844      O1859   1.262       .  A
N1844      O1860   1.262       .  A
N1846      O1857   1.262       .  A
N1846      O1858   1.262       .  A
C1848      N1853   1.428       .  S
C1848      C1849   1.402       .  A
C1849      C1850   1.401       .  A
C1849      H1854   1.083       .  S
C1850      C1851   1.411       .  A
C1851      N1855   1.429       .  S
C1851      C1852   1.407       .  A
C1852      H1856   1.084       .  S
N1853      O1863   1.262       .  A
N1853      O1864   1.262       .  A
N1855      O1861   1.261       .  A
N1855      O1862   1.262       .  A
C1865      C1866   1.404       .  A
C1865      C1870   1.406       .  A
C1865      H1875   1.083       .  S
C1866      C1867   1.411       .  A
C1866      C1871   1.498       .  S
C1867      N1872   1.429       .  S
C1867      C1868   1.404       .  A
C1868      C1869   1.409       .  A
C1868      H1873   1.083       .  S
C1869      C1870   1.422       .  A
C1870      N1874   1.430       .  S
C1871      C1876   1.413       .  A
C1871      C1880   1.406       .  A
N1872      O1887   1.262       .  A
N1872      O1888   1.262       .  A
N1874      O1885   1.262       .  A
N1874      O1886   1.262       .  A
C1876      N1881   1.428       .  S
C1876      C1877   1.402       .  A
C1877      C1878   1.401       .  A
C1877      H1882   1.082       .  S
C1878      C1879   1.417       .  A
C1879      N1883   1.438       .  S
C1879      C1880   1.409       .  A
C1880      H1884   1.083       .  S
N1881      O1891   1.262       .  A
N1881      O1892   1.262       .  A
N1883      O1889   1.263       .  A
N1883      O1890   1.263       .  A
C1893      C1894   1.410       .  A
C1893      C1898   1.410       .  A
C1893      H1903   1.083       .  S
C1894      C1895   1.414       .  A
C1894      C1899   1.500       .  S
C1895      N1900   1.429       .  S
C1895      C1896   1.404       .  A
C1896      C1897   1.400       .  A
C1896      H1901   1.083       .  S
C1897      C1898   1.406       .  A
C1898      N1902   1.427       .  S
C1899      C1904   1.412       .  A
C1899      C1908   1.408       .  A
N1900      O1915   1.262       .  A
N1900      O1916   1.262       .  A
N1902      O1913   1.262       .  A
N1902      O1914   1.261       .  A
C1904      N1909   1.428       .  S
C1904      C1905   1.406       .  A
C1905      C1906   1.408       .  A
C1905      H1910   1.084       .  S
C1906      C1907   1.414       .  A
C1907      N1911   1.430       .  S
C1907      C1908   1.408       .  A
C1908      H1912   1.084       .  S
N1909      O1919   1.262       .  A
N1909      O1920   1.262       .  A
N1911      O1917   1.262       .  A
N1911      O1918   1.262       .  A
C1921      C1922   1.402       .  A
C1921      C1926   1.403       .  A
C1921      H1931   1.084       .  S
C1922      C1923   1.410       .  A
C1922      C1927   1.492       .  S
C1923      N1928   1.430       .  S
C1923      C1924   1.404       .  A
C1924      C1925   1.411       .  A
C1924      H1929   1.083       .  S
C1925      C1926   1.420       .  A
C1926      N1930   1.429       .  S
C1927      C1932   1.412       .  A
C1927      C1936   1.404       .  A
N1928      O1943   1.262       .  A
N1928      O1944   1.262       .  A
N1930      O1941   1.262       .  A
N1930      O1942   1.262       .  A
C1932      N1937   1.428       .  S
C1932      C1933   1.402       .  A
C1933      C1934   1.402       .  A
C1933      H1938   1.083       .  S
C1934      C1935   1.414       .  A
C1935      N1939   1.430       .  S
C1935      C1936   1.404       .  A
C1936      H1940   1.084       .  S
N1937      O1947   1.262       .  A
N1937      O1948   1.262       .  A
N1939      O1945   1.262       .  A
N1939      O1946   1.262       .  A
C1949      C1950   1.405   1_455  A
C1949      C1954   1.404       .  A
C1949      H1959   1.084       .  S
C1950      C1951   1.405       .  A
C1950      C1955   1.476       .  S
C1951      N1956   1.429       .  S
C1951      C1952   1.393       .  A
C1952      C1953   1.407       .  A
C1952      H1957   1.084       .  S
C1953      C1954   1.411   1_655  A
C1954      N1958   1.428       .  S
C1955      C1960   1.409   1_655  A
C1955      C1964   1.402       .  A
N1956      O1971   1.262       .  A
N1956      O1972   1.262       .  A
N1958      O1969   1.262       .  A
N1958      O1970   1.262       .  A
C1960      N1965   1.429       .  S
C1960      C1961   1.399       .  A
C1961      C1962   1.401   1_455  A
C1961      H1966   1.082       .  S
C1962      C1963   1.408       .  A
C1963      N1967   1.429       .  S
C1963      C1964   1.397       .  A
C1964      H1968   1.084       .  S
N1965      O1975   1.262       .  A
N1965      O1976   1.262       .  A
N1967      O1973   1.261       .  A
N1967      O1974   1.262       .  A
C1977      C1978   1.404   1_655  A
C1977      C1982   1.400       .  A
C1977      H1987   1.084       .  S
C1978      C1979   1.407       .  A
C1978      C1983   1.477       .  S
C1979      N1984   1.429       .  S
C1979      C1980   1.399       .  A
C1980      C1981   1.404   1_455  A
C1980      H1985   1.084       .  S
C1981      C1982   1.406       .  A
C1982      N1986   1.428       .  S
C1983      C1988   1.411       .  A
C1983      C1992   1.395       .  A
N1984      O1999   1.262       .  A
N1984      O2000   1.262       .  A
N1986      O1997   1.262       .  A
N1986      O1998   1.262       .  A
C1988      N1993   1.428       .  S
C1988      C1989   1.402       .  A
C1989      C1990   1.406       .  A
C1989      H1994   1.083   1_455  S
C1990      C1991   1.420       .  A
C1991      N1995   1.428       .  S
C1991      C1992   1.396       .  A
C1992      H1996   1.084       .  S
N1993      O2003   1.261   1_455  A
N1993      O2004   1.262       .  A
N1995      O2001   1.262       .  A
N1995      O2002   1.261       .  A
C2005      C2006   1.401   1_655  A
C2005      C2010   1.396       .  A
C2005      H2015   1.084       .  S
C2006      C2007   1.413       .  A
C2006      C2011   1.484       .  S
C2007      N2012   1.428       .  S
C2007      C2008   1.405       .  A
C2008      C2009   1.402       .  A
C2008      H2013   1.084       .  S
C2009      C2010   1.409   1_455  A
C2010      N2014   1.429       .  S
C2011      C2016   1.408   1_455  A
C2011      C2020   1.407       .  A
N2012      O2027   1.262       .  A
N2012      O2028   1.262       .  A
N2014      O2025   1.262       .  A
N2014      O2026   1.262       .  A
C2016      N2021   1.429       .  S
C2016      C2017   1.397       .  A
C2017      C2018   1.404   1_655  A
C2017      H2022   1.085       .  S
C2018      C2019   1.409       .  A
C2019      N2023   1.429       .  S
C2019      C2020   1.406       .  A
C2020      H2024   1.084       .  S
N2021      O2031   1.262       .  A
N2021      O2032   1.262       .  A
N2023      O2029   1.262       .  A
N2023      O2030   1.262       .  A
C2033      C2034   1.397       .  A
C2033      C2038   1.396       .  A
C2033      H2043   1.084       .  S
C2034      C2035   1.409   1_455  A
C2034      C2039   1.474       .  S
C2035      N2040   1.428       .  S
C2035      C2036   1.401       .  A
C2036      C2037   1.404   1_655  A
C2036      H2041   1.084       .  S
C2037      C2038   1.415       .  A
C2038      N2042   1.428       .  S
C2039      C2044   1.405       .  A
C2039      C2048   1.402   1_455  A
N2040      O2055   1.262       .  A
N2040      O2056   1.262       .  A
N2042      O2053   1.262       .  A
N2042      O2054   1.262       .  A
C2044      N2049   1.429       .  S
C2044      C2045   1.396       .  A
C2045      C2046   1.404       .  A
C2045      H2050   1.084       .  S
C2046      C2047   1.411   1_455  A
C2047      N2051   1.428       .  S
C2047      C2048   1.403       .  A
C2048      H2052   1.084       .  S
N2049      O2059   1.262       .  A
N2049      O2060   1.262       .  A
N2051      O2057   1.262       .  A
N2051      O2058   1.262       .  A
C2061      C2062   1.402   1_655  A
C2061      C2066   1.406   1_655  A
C2061      H2071   1.084       .  S
C2062      C2063   1.406       .  A
C2062      C2067   1.479       .  S
C2063      N2068   1.429       .  S
C2063      C2064   1.399       .  A
C2064      C2065   1.405       .  A
C2064      H2069   1.084       .  S
C2065      C2066   1.413       .  A
C2066      N2070   1.428   1_455  S
C2067      C2072   1.409       .  A
C2067      C2076   1.396       .  A
N2068      O2083   1.262       .  A
N2068      O2084   1.262       .  A
N2070      O2081   1.262       .  A
N2070      O2082   1.262       .  A
C2072      N2077   1.428   1_455  S
C2072      C2073   1.403   1_455  A
C2073      C2074   1.407   1_655  A
C2073      H2078   1.084       .  S
C2074      C2075   1.420       .  A
C2075      N2079   1.427       .  S
C2075      C2076   1.400       .  A
C2076      H2080   1.084       .  S
N2077      O2087   1.262       .  A
N2077      O2088   1.262   1_655  A
N2079      O2085   1.262       .  A
N2079      O2086   1.262       .  A
C2089      C2090   1.404   1_655  A
C2089      C2094   1.401       .  A
C2089      H2099   1.084       .  S
C2090      C2091   1.412       .  A
C2090      C2095   1.481       .  S
C2091      N2096   1.429       .  S
C2091      C2092   1.397       .  A
C2092      C2093   1.399   1_455  A
C2092      H2097   1.084       .  S
C2093      C2094   1.410       .  A
C2094      N2098   1.431       .  S
C2095      C2100   1.410   1_455  A
C2095      C2104   1.404       .  A
N2096      O2111   1.262       .  A
N2096      O2112   1.262       .  A
N2098      O2109   1.262       .  A
N2098      O2110   1.262       .  A
C2100      N2105   1.428       .  S
C2100      C2101   1.398       .  A
C2101      C2102   1.401   1_655  A
C2101      H2106   1.084       .  S
C2102      C2103   1.407       .  A
C2103      N2107   1.427       .  S
C2103      C2104   1.400       .  A
C2104      H2108   1.084       .  S
N2105      O2115   1.262       .  A
N2105      O2116   1.262       .  A
N2107      O2113   1.262       .  A
N2107      O2114   1.262       .  A
C2117      C2118   1.400       .  A
C2117      C2122   1.399       .  A
C2117      H2127   1.084       .  S
C2118      C2119   1.408       .  A
C2118      C2123   1.479       .  S
C2119      N2124   1.428       .  S
C2119      C2120   1.400       .  A
C2120      C2121   1.402       .  A
C2120      H2125   1.079       .  S
C2121      C2122   1.413       .  A
C2122      N2126   1.430       .  S
C2123      C2128   1.406       .  A
C2123      C2132   1.405       .  A
N2124      O2139   1.262       .  A
N2124      O2140   1.262       .  A
N2126      O2137   1.262       .  A
N2126      O2138   1.262       .  A
C2128      N2133   1.429       .  S
C2128      C2129   1.396       .  A
C2129      C2130   1.405       .  A
C2129      H2134   1.084       .  S
C2130      C2131   1.411       .  A
C2131      N2135   1.429       .  S
C2131      C2132   1.405       .  A
C2132      H2136   1.084       .  S
N2133      O2143   1.262       .  A
N2133      O2144   1.262       .  A
N2135      O2141   1.262       .  A
N2135      O2142   1.262       .  A
C2145      C2146   1.402       .  A
C2145      C2150   1.402       .  A
C2145      H2155   1.084       .  S
C2146      C2147   1.412       .  A
C2146      C2151   1.486       .  S
C2147      N2152   1.428       .  S
C2147      C2148   1.401       .  A
C2148      C2149   1.401       .  A
C2148      H2153   1.084       .  S
C2149      C2150   1.415       .  A
C2150      N2154   1.430       .  S
C2151      C2156   1.410       .  A
C2151      C2160   1.407       .  A
N2152      O2167   1.262       .  A
N2152      O2168   1.262       .  A
N2154      O2165   1.262       .  A
N2154      O2166   1.262       .  A
C2156      N2161   1.429       .  S
C2156      C2157   1.398       .  A
C2157      C2158   1.400       .  A
C2157      H2162   1.084       .  S
C2158      C2159   1.407       .  A
C2159      N2163   1.429       .  S
C2159      C2160   1.405       .  A
C2160      H2164   1.084       .  S
N2161      O2171   1.262       .  A
N2161      O2172   1.262       .  A
N2163      O2169   1.262       .  A
N2163      O2170   1.262       .  A
C2173      C2174   1.405       .  A
C2173      C2178   1.402       .  A
C2173      H2183   1.083       .  S
C2174      C2175   1.405       .  A
C2174      C2179   1.484       .  S
C2175      N2180   1.429       .  S
C2175      C2176   1.396       .  A
C2176      C2177   1.412       .  A
C2176      H2181   1.083       .  S
C2177      C2178   1.416       .  A
C2178      N2182   1.429       .  S
C2179      C2184   1.410       .  A
C2179      C2188   1.405       .  A
N2180      O2195   1.262       .  A
N2180      O2196   1.262       .  A
N2182      O2193   1.262       .  A
N2182      O2194   1.261       .  A
C2184      N2189   1.429       .  S
C2184      C2185   1.396       .  A
C2185      C2186   1.401       .  A
C2185      H2190   1.084       .  S
C2186      C2187   1.410       .  A
C2187      N2191   1.429       .  S
C2187      C2188   1.401       .  A
C2188      H2192   1.083       .  S
N2189      O2199   1.262       .  A
N2189      O2200   1.262       .  A
N2191      O2197   1.262       .  A
N2191      O2198   1.262       .  A
C2201      C2202   1.404       .  A
C2201      C2206   1.403       .  A
C2201      H2211   1.084       .  S
C2202      C2203   1.403       .  A
C2202      C2207   1.482       .  S
C2203      N2208   1.429       .  S
C2203      C2204   1.399       .  A
C2204      C2205   1.413       .  A
C2204      H2209   1.083       .  S
C2205      C2206   1.416       .  A
C2206      N2210   1.429       .  S
C2207      C2212   1.408       .  A
C2207      C2216   1.406       .  A
N2208      O2223   1.262       .  A
N2208      O2224   1.262       .  A
N2210      O2221   1.262       .  A
N2210      O2222   1.262       .  A
C2212      N2217   1.428       .  S
C2212      C2213   1.396       .  A
C2213      C2214   1.398       .  A
C2213      H2218   1.084       .  S
C2214      C2215   1.410       .  A
C2215      N2219   1.430       .  S
C2215      C2216   1.406       .  A
C2216      H2220   1.084       .  S
N2217      O2227   1.262       .  A
N2217      O2228   1.262       .  A
N2219      O2225   1.262       .  A
N2219      O2226   1.262       .  A
C2229      C2230   1.405       .  A
C2229      C2234   1.400       .  A
C2229      H2239   1.084       .  S
C2230      C2231   1.407       .  A
C2230      C2235   1.482       .  S
C2231      N2236   1.429       .  S
C2231      C2232   1.397       .  A
C2232      C2233   1.407       .  A
C2232      H2237   1.084       .  S
C2233      C2234   1.412       .  A
C2234      N2238   1.429       .  S
C2235      C2240   1.411       .  A
C2235      C2244   1.406       .  A
N2236      O2251   1.262       .  A
N2236      O2252   1.262       .  A
N2238      O2249   1.262       .  A
N2238      O2250   1.262       .  A
C2240      N2245   1.429       .  S
C2240      C2241   1.394       .  A
C2241      C2242   1.395       .  A
C2241      H2246   1.084       .  S
C2242      C2243   1.407       .  A
C2243      N2247   1.430       .  S
C2243      C2244   1.401       .  A
C2244      H2248   1.083       .  S
N2245      O2255   1.262       .  A
N2245      O2256   1.262       .  A
N2247      O2253   1.262       .  A
N2247      O2254   1.262       .  A
C2257      C2258   1.402       .  A
C2257      C2262   1.402       .  A
C2257      H2267   1.084       .  S
C2258      C2259   1.414       .  A
C2258      C2263   1.496       .  S
C2259      N2264   1.428       .  S
C2259      C2260   1.407       .  A
C2260      C2261   1.404       .  A
C2260      H2265   1.082       .  S
C2261      C2262   1.416       .  A
C2262      N2266   1.430       .  S
C2263      C2268   1.413       .  A
C2263      C2272   1.401       .  A
N2264      O2279   1.262       .  A
N2264      O2280   1.262       .  A
N2266      O2277   1.262       .  A
N2266      O2278   1.262       .  A
C2268      N2273   1.429       .  S
C2268      C2269   1.405       .  A
C2269      C2270   1.407       .  A
C2269      H2274   1.083       .  S
C2270      C2271   1.424       .  A
C2271      N2275   1.429       .  S
C2271      C2272   1.406       .  A
C2272      H2276   1.084       .  S
N2273      O2283   1.262       .  A
N2273      O2284   1.262       .  A
N2275      O2281   1.262       .  A
N2275      O2282   1.262       .  A
C2285      C2286   1.400       .  A
C2285      C2290   1.399       .  A
C2285      H2295   1.084       .  S
C2286      C2287   1.408       .  A
C2286      C2291   1.478       .  S
C2287      N2292   1.428       .  S
C2287      C2288   1.402       .  A
C2288      C2289   1.402       .  A
C2288      H2293   1.084       .  S
C2289      C2290   1.413       .  A
C2290      N2294   1.430       .  S
C2291      C2296   1.403       .  A
C2291      C2300   1.402       .  A
N2292      O2307   1.262       .  A
N2292      O2308   1.261       .  A
N2294      O2305   1.262       .  A
N2294      O2306   1.262       .  A
C2296      N2301   1.428       .  S
C2296      C2297   1.397       .  A
C2297      C2298   1.410       .  A
C2297      H2302   1.084       .  S
C2298      C2299   1.415       .  A
C2299      N2303   1.427       .  S
C2299      C2300   1.405       .  A
C2300      H2304   1.084       .  S
N2301      O2311   1.262       .  A
N2301      O2312   1.262       .  A
N2303      O2309   1.262       .  A
N2303      O2310   1.262       .  A
C2313      C2314   1.403       .  A
C2313      C2318   1.402       .  A
C2313      H2323   1.084       .  S
C2314      C2315   1.407       .  A
C2314      C2319   1.480       .  S
C2315      N2320   1.429       .  S
C2315      C2316   1.399       .  A
C2316      C2317   1.405       .  A
C2316      H2321   1.084       .  S
C2317      C2318   1.410       .  A
C2318      N2322   1.427       .  S
C2319      C2324   1.411       .  A
C2319      C2328   1.399       .  A
N2320      O2335   1.262       .  A
N2320      O2336   1.262       .  A
N2322      O2333   1.262       .  A
N2322      O2334   1.262       .  A
C2324      N2329   1.428       .  S
C2324      C2325   1.401       .  A
C2325      C2326   1.400       .  A
C2325      H2330   1.084       .  S
C2326      C2327   1.415       .  A
C2327      N2331   1.429       .  S
C2327      C2328   1.401       .  A
C2328      H2332   1.084       .  S
N2329      O2339   1.262       .  A
N2329      O2340   1.262       .  A
N2331      O2337   1.262       .  A
N2331      O2338   1.262       .  A
C2341      C2342   1.401       .  A
C2341      C2346   1.407       .  A
C2341      H2351   1.084       .  S
C2342      C2343   1.407       .  A
C2342      C2347   1.488       .  S
C2343      N2348   1.429       .  S
C2343      C2344   1.403       .  A
C2344      C2345   1.411       .  A
C2344      H2349   1.083   1_655  S
C2345      C2346   1.422       .  A
C2346      N2350   1.429       .  S
C2347      C2352   1.410       .  A
C2347      C2356   1.405   1_655  A
N2348      O2363   1.262   1_655  A
N2348      O2364   1.261       .  A
N2350      O2361   1.262   1_655  A
N2350      O2362   1.262       .  A
C2352      N2357   1.428       .  S
C2352      C2353   1.402       .  A
C2353      C2354   1.403       .  A
C2353      H2358   1.083       .  S
C2354      C2355   1.410   1_655  A
C2355      N2359   1.428       .  S
C2355      C2356   1.407       .  A
C2356      H2360   1.084       .  S
N2357      O2367   1.262       .  A
N2357      O2368   1.262       .  A
N2359      O2365   1.262       .  A
N2359      O2366   1.261       .  A
C2369      C2370   1.401   1_455  A
C2369      C2374   1.404       .  A
C2369      H2379   1.084       .  S
C2370      C2371   1.408       .  A
C2370      C2375   1.484       .  S
C2371      N2376   1.428       .  S
C2371      C2372   1.404       .  A
C2372      C2373   1.405   1_655  A
C2372      H2377   1.083       .  S
C2373      C2374   1.414       .  A
C2374      N2378   1.428       .  S
C2375      C2380   1.407   1_655  A
C2375      C2384   1.403       .  A
N2376      O2391   1.262       .  A
N2376      O2392   1.262       .  A
N2378      O2389   1.262       .  A
N2378      O2390   1.262       .  A
C2380      N2385   1.429       .  S
C2380      C2381   1.400       .  A
C2381      C2382   1.407   1_455  A
C2381      H2386   1.084       .  S
C2382      C2383   1.417       .  A
C2383      N2387   1.429       .  S
C2383      C2384   1.407       .  A
C2384      H2388   1.084       .  S
N2385      O2395   1.262       .  A
N2385      O2396   1.262       .  A
N2387      O2393   1.262       .  A
N2387      O2394   1.262       .  A
C2397      C2398   1.403   1_655  A
C2397      C2402   1.409       .  A
C2397      H2407   1.084       .  S
C2398      C2399   1.408       .  A
C2398      C2403   1.492       .  S
C2399      N2404   1.429       .  S
C2399      C2400   1.405       .  A
C2400      C2401   1.412       .  A
C2400      H2405   1.083       .  S
C2401      C2402   1.419   1_455  A
C2402      N2406   1.428       .  S
C2403      C2408   1.411   1_455  A
C2403      C2412   1.406       .  A
N2404      O2419   1.262       .  A
N2404      O2420   1.262       .  A
N2406      O2417   1.262       .  A
N2406      O2418   1.262       .  A
C2408      N2413   1.427       .  S
C2408      C2409   1.404       .  A
C2409      C2410   1.401   1_655  A
C2409      H2414   1.083       .  S
C2410      C2411   1.409       .  A
C2411      N2415   1.431       .  S
C2411      C2412   1.408       .  A
C2412      H2416   1.084       .  S
N2413      O2423   1.262       .  A
N2413      O2424   1.262       .  A
N2415      O2421   1.261       .  A
N2415      O2422   1.262       .  A
C2425      C2426   1.407       .  A
C2425      C2430   1.406       .  A
C2425      H2435   1.084       .  S
C2426      C2427   1.414   1_655  A
C2426      C2431   1.498       .  S
C2427      N2432   1.429       .  S
C2427      C2428   1.406   1_455  A
C2428      C2429   1.404       .  A
C2428      H2433   1.084   1_655  S
C2429      C2430   1.407       .  A
C2430      N2434   1.427       .  S
C2431      C2436   1.414       .  A
C2431      C2440   1.401       .  A
N2432      O2447   1.262       .  A
N2432      O2448   1.262       .  A
N2434      O2445   1.262       .  A
N2434      O2446   1.262       .  A
C2436      N2441   1.429       .  S
C2436      C2437   1.408       .  A
C2437      C2438   1.410       .  A
C2437      H2442   1.083       .  S
C2438      C2439   1.423       .  A
C2439      N2443   1.428   1_655  S
C2439      C2440   1.406       .  A
C2440      H2444   1.084       .  S
N2441      O2451   1.262       .  A
N2441      O2452   1.262   1_655  A
N2443      O2449   1.261   1_455  A
N2443      O2450   1.262       .  A
C2453      C2454   1.404       .  A
C2453      C2458   1.402       .  A
C2453      H2463   1.084       .  S
C2454      C2455   1.413       .  A
C2454      C2459   1.493       .  S
C2455      N2460   1.429   1_655  S
C2455      C2456   1.405       .  A
C2456      C2457   1.404       .  A
C2456      H2461   1.082       .  S
C2457      C2458   1.414       .  A
C2458      N2462   1.430       .  S
C2459      C2464   1.409       .  A
C2459      C2468   1.405       .  A
N2460      O2475   1.262       .  A
N2460      O2476   1.262       .  A
N2462      O2473   1.262       .  A
N2462      O2474   1.262       .  A
C2464      N2469   1.430       .  S
C2464      C2465   1.403       .  A
C2465      C2466   1.412       .  A
C2465      H2470   1.083   1_655  S
C2466      C2467   1.416       .  A
C2467      N2471   1.428       .  S
C2467      C2468   1.405       .  A
C2468      H2472   1.084       .  S
N2469      O2479   1.262       .  A
N2469      O2480   1.262   1_655  A
N2471      O2477   1.262       .  A
N2471      O2478   1.262       .  A
C2481      C2482   1.404   1_455  A
C2481      C2486   1.407       .  A
C2481      H2491   1.084       .  S
C2482      C2483   1.411       .  A
C2482      C2487   1.490       .  S
C2483      N2488   1.429       .  S
C2483      C2484   1.401       .  A
C2484      C2485   1.404       .  A
C2484      H2489   1.084       .  S
C2485      C2486   1.416   1_655  A
C2486      N2490   1.429       .  S
C2487      C2492   1.412       .  A
C2487      C2496   1.404       .  A
N2488      O2503   1.262       .  A
N2488      O2504   1.262       .  A
N2490      O2501   1.262       .  A
N2490      O2502   1.262       .  A
C2492      N2497   1.427   1_655  S
C2492      C2493   1.404       .  A
C2493      C2494   1.401       .  A
C2493      H2498   1.083   1_655  S
C2494      C2495   1.409       .  A
C2495      N2499   1.428       .  S
C2495      C2496   1.402       .  A
C2496      H2500   1.084       .  S
N2497      O2507   1.262       .  A
N2497      O2508   1.261       .  A
N2499      O2505   1.262       .  A
N2499      O2506   1.262       .  A
