geometry optimzed in LAMMPS
_audit_creation_date              2020-11-30 
_audit_creation_method            'lammps2cif' 
_symmetry_space_group_name_H-M    'P1' 
_symmetry_Int_Tables_number       1 
_symmetry_cell_setting            triclinic 
loop_ 
_symmetry_equiv_pos_as_xyz 
  x,y,z 
_cell_length_a                    43.26673523 
_cell_length_b                    43.369126591018414 
_cell_length_c                    43.15216639679722 
_cell_angle_alpha                 89.82178527185103 
_cell_angle_beta                  90.26547329235865 
_cell_angle_gamma                 89.98703095725652 
loop_ 
_atom_site_label 
_atom_site_type_symbol 
_atom_site_fract_x 
_atom_site_fract_y 
_atom_site_fract_z 
_atom_site_charge 
Zn1        Zn  0.17000259  0.16953452  0.18112110     1.49700
Zn2        Zn  0.16593636  0.14397173  0.11343955     1.49400
Zn3        Zn  0.14536808  0.10261437  0.17259754     1.49100
Zn4        Zn  0.10450637  0.16195322  0.15215949     1.49500
O5          O  0.14602003  0.14403494  0.15425636    -1.83400
O6          O  0.21184919  0.17621623  0.16429309    -0.74000
O7          O  0.17661777  0.09998662  0.10231610    -0.73900
O8          O  0.16305166  0.10216854  0.21667198    -0.73400
O9          O  0.20747710  0.16682501  0.11390279    -0.74100
O10         O  0.17375366  0.15173500  0.22333967    -0.73700
O11         O  0.16779446  0.07199078  0.14477714    -0.74200
O12         O  0.07337766  0.13223026  0.17095861    -0.73600
O13         O  0.13668456  0.16146129  0.08051025    -0.74400
O14         O  0.10095688  0.08927030  0.17788322    -0.73800
O15         O  0.09323164  0.16752911  0.10738484    -0.74200
O16         O  0.10221249  0.20570266  0.17102015    -0.74200
O17         O  0.15114868  0.21061261  0.18556769    -0.73900
C18         C  0.22319746  0.17598926  0.13721307     0.77800
C19         C  0.17762628  0.07442171  0.11701229     0.78300
C20         C  0.17123830  0.12453197  0.23397754     0.77300
C21         C  0.07529446  0.10375716  0.17840379     0.77700
C22         C  0.10799733  0.16825860  0.08192799     0.78800
C23         C  0.12438482  0.22196861  0.18174738     0.77900
Zn24       Zn  0.86853268  0.60853991  0.36846791     1.49700
Zn25       Zn  0.82553032  0.66590672  0.36885648     1.49400
Zn26       Zn  0.86512030  0.64963547  0.30846713     1.49100
Zn27       Zn  0.80841918  0.60686451  0.32777719     1.49500
O28         O  0.84160445  0.63310834  0.34296716    -1.83400
O29         O  0.88487847  0.63296583  0.40428618    -0.74000
O30         O  0.83400087  0.70656267  0.34823257    -0.73900
O31         O  0.90705360  0.62854017  0.30550864    -0.73400
O32         O  0.84747896  0.66750720  0.41066031    -0.74100
O33         O  0.90459417  0.59411479  0.34378164    -0.73700
O34         O  0.86735839  0.69661147  0.31039025    -0.74200
O35         O  0.80938757  0.60241748  0.28104785    -0.73600
O36         O  0.77916600  0.66304670  0.37295184    -0.74400
O37         O  0.84375890  0.63848791  0.26861294    -0.73800
O38         O  0.76783192  0.62636881  0.33873643    -0.74200
O39         O  0.80862586  0.56536997  0.34936103    -0.74200
O40         O  0.84550172  0.57186771  0.38489739    -0.73900
C41         C  0.87259878  0.65478231  0.41952943     0.77800
C42         C  0.85162067  0.71561146  0.32648669     0.78300
C43         C  0.91791025  0.60518440  0.32000044     0.77300
C44         C  0.82361106  0.61849240  0.26087221     0.77700
C45         C  0.75953737  0.64730296  0.35758372     0.78800
C46         C  0.82306908  0.55651915  0.37360335     0.77900
C47         C  0.00539601  0.25979593  0.90041108     0.87200
C48         C  0.01800728  0.29148917  0.89087686    -0.53000
C49         C  0.00295896  0.30454751  0.86630427     0.10100
C50         C  0.97675759  0.28433126  0.85309117     0.21100
C51         C  0.97041059  0.26534664  0.90575630    -0.53800
C52         C  0.95548826  0.27834549  0.88092455     0.10200
C53         C  0.00681468  0.24025655  0.87104890    -0.53300
C54         C  0.99136756  0.25247533  0.84622859     0.10800
H55         H  0.03584771  0.30353553  0.90385638     0.15300
H56         H  0.96503248  0.29504003  0.83285562     0.01100
H57         H  0.95856025  0.26071871  0.92731458     0.15600
H58         H  0.01765231  0.21767708  0.87073904     0.15400
C59         C  0.73440266  0.39185983  0.49950651     0.87200
C60         C  0.70100161  0.38966181  0.48805830    -0.53000
C61         C  0.68451689  0.36625827  0.50100565     0.10100
C62         C  0.70330405  0.34670638  0.52425176     0.21100
C63         C  0.73166337  0.39401796  0.53513536    -0.53800
C64         C  0.71509513  0.37036030  0.54811888     0.10200
C65         C  0.74848747  0.36013662  0.49367078    -0.53300
C66         C  0.73281704  0.33637129  0.50713500     0.10800
H67         H  0.69060694  0.40662956  0.47262276     0.15300
H68         H  0.68986369  0.32729943  0.53417023     0.01100
H69         H  0.74110468  0.41282718  0.54867599     0.15600
H70         H  0.77057253  0.35726284  0.48217191     0.15400
C71         C  0.59021607  0.00131531  0.74390045     0.87200
C72         C  0.59160039  0.98772256  0.77657698    -0.53000
C73         C  0.61393271  0.99999882  0.79513898     0.10100
C74         C  0.63350098  0.02482705  0.77890281     0.21100
C75         C  0.58706697  0.03641975  0.74900542    -0.53800
C76         C  0.60965365  0.04881063  0.76750033     0.10200
C77         C  0.62281261  0.99723287  0.73081918    -0.53300
C78         C  0.64564067  0.00997305  0.74878445     0.10800
H79         H  0.57501130  0.97082184  0.78485766     0.15300
H80         H  0.65202290  0.03426248  0.79392135     0.01100
H81         H  0.56855404  0.05024894  0.73921493     0.15600
H82         H  0.62694055  0.98720277  0.70820617     0.15400
Zn83       Zn  0.88239759  0.05060918  0.58496855     1.49700
Zn84       Zn  0.87448525  0.11314022  0.62151444     1.49400
Zn85       Zn  0.94141092  0.08536970  0.61605258     1.49100
Zn86       Zn  0.90633127  0.11408148  0.55562831     1.49500
O87         O  0.90157033  0.09054573  0.59421317    -1.83400
O88         O  0.84322566  0.04383336  0.61032403    -0.74000
O89         O  0.89805285  0.13357950  0.65563447    -0.73900
O90         O  0.95222511  0.03950190  0.62153382    -0.73400
O91         O  0.84291743  0.08527863  0.64049430    -0.74100
O92         O  0.91144557  0.01757261  0.59892648    -0.73700
O93         O  0.94297818  0.10890315  0.65736394    -0.74200
O94         O  0.95100083  0.12753727  0.54982967    -0.73600
O95         O  0.85201916  0.14653486  0.59878254    -0.74400
O96         O  0.97434594  0.10546322  0.59033603    -0.73800
O97         O  0.87740150  0.15113635  0.55437337    -0.74200
O98         O  0.89416057  0.08772692  0.51909955    -0.74200
O99         O  0.87467236  0.04433164  0.53837611    -0.73900
C100        C  0.83203042  0.05911431  0.63286677     0.77800
C101        C  0.92434411  0.12902816  0.66806428     0.78300
C102        C  0.93733612  0.01554888  0.61293609     0.77300
C103        C  0.97527919  0.12165431  0.56565612     0.77700
C104        C  0.85624899  0.15986552  0.57288074     0.78800
C105        C  0.88158100  0.06143213  0.51528482     0.77900
Zn106      Zn  0.62666184  0.37261509  0.87627729     1.49700
Zn107      Zn  0.62950165  0.33053973  0.81608803     1.49400
Zn108      Zn  0.68998222  0.36558300  0.83873969     1.49100
Zn109      Zn  0.66501765  0.30947016  0.87830128     1.49500
O110        O  0.65271746  0.34447303  0.85233444    -1.83400
O111        O  0.58984834  0.38706000  0.85079559    -0.74000
O112        O  0.65241469  0.34177991  0.77715953    -0.73900
O113        O  0.69266383  0.40703847  0.85831841    -0.73400
O114        O  0.58842643  0.35289276  0.81248143    -0.74100
O115        O  0.65148086  0.41026758  0.88888196    -0.73700
O116        O  0.69259719  0.36993311  0.79222592    -0.74200
O117        O  0.71166520  0.30719782  0.88617352    -0.73600
O118        O  0.62436314  0.28394402  0.81607920    -0.74400
O119        O  0.72789466  0.34310545  0.85330433    -0.73800
O120        O  0.65305179  0.27013737  0.85676427    -0.74200
O121        O  0.64126799  0.31004955  0.91850599    -0.74200
O122        O  0.61036728  0.35098754  0.91479277    -0.73900
C123        C  0.57702650  0.37603072  0.82659338     0.77800
C124        C  0.67614222  0.35798106  0.77091469     0.78300
C125        C  0.67694622  0.42104878  0.87873557     0.77300
C126        C  0.73350447  0.32160767  0.87267636     0.77700
C127        C  0.63659733  0.26322447  0.83323994     0.78800
C128        C  0.61935598  0.32668024  0.92891408     0.77900
C129        C  0.26016027  0.90410138  0.99189389     0.87200
C130        C  0.29168418  0.89429128  0.00500246    -0.53000
C131        C  0.30414207  0.86929767  0.99069099     0.10100
C132        C  0.28374744  0.85593977  0.96487754     0.21100
C133        C  0.26577184  0.90844045  0.95670654    -0.53800
C134        C  0.27784700  0.88298796  0.94258577     0.10200
C135        C  0.23973049  0.87511229  0.99398568    -0.53300
C136        C  0.25200058  0.84979171  0.97966948     0.10800
H137        H  0.30409902  0.90738703  0.02250622     0.15300
H138        H  0.29431664  0.83558030  0.95359641     0.01100
H139        H  0.25963319  0.92905264  0.94379552     0.15600
H140        H  0.21733120  0.87496704  0.00521326     0.15400
C141        C  0.40499131  0.49674681  0.73817822     0.87200
C142        C  0.39497088  0.48393247  0.70639785    -0.53000
C143        C  0.37190324  0.50025005  0.69244390     0.10100
C144        C  0.36066733  0.52785562  0.71135116     0.21100
C145        C  0.41331895  0.53068514  0.73138014    -0.53800
C146        C  0.38987916  0.54704576  0.71775892     0.10200
C147        C  0.37505797  0.49849106  0.75727593    -0.53300
C148        C  0.35179636  0.51500115  0.74335371     0.10800
H149        H  0.40646760  0.46534067  0.69436094     0.15300
H150        H  0.34208560  0.54094445  0.69936217     0.01100
H151        H  0.43516768  0.54110849  0.73803854     0.15600
H152        H  0.37292749  0.48816583  0.78010815     0.15400
C153        C  0.99446560  0.75030267  0.58511444     0.87200
C154        C  0.98031663  0.78230361  0.58940811    -0.53000
C155        C  0.99253698  0.79855368  0.61345627     0.10100
C156        C  0.01807717  0.78117732  0.63122105     0.21100
C157        C  0.02954632  0.75618529  0.58212898    -0.53800
C158        C  0.04201293  0.77227454  0.60648052     0.10200
C159        C  0.99089617  0.73430050  0.61661741    -0.53300
C160        C  0.00373335  0.75004574  0.64093219     0.10800
H161        H  0.96235193  0.79149124  0.57431831     0.15300
H162        H  0.02762321  0.79474642  0.65075528     0.01100
H163        H  0.04337530  0.74753013  0.56317351     0.15600
H164        H  0.98014347  0.71182763  0.61889395     0.15400
Zn165      Zn  0.06603013  0.56786768  0.92026304     1.49700
Zn166      Zn  0.13374411  0.59826385  0.91665448     1.49400
Zn167      Zn  0.09714375  0.57920461  0.85486613     1.49100
Zn168      Zn  0.07383068  0.63698844  0.89561113     1.49500
O169        O  0.09277400  0.59572576  0.89685234    -1.83400
O170        O  0.08913982  0.55082304  0.95673466    -0.74000
O171        O  0.16716636  0.58248145  0.88794582    -0.73900
O172        O  0.07918539  0.53586519  0.85173539    -0.73400
O173        O  0.13533875  0.57330067  0.95652290    -0.74100
O174        O  0.05235407  0.53084479  0.89523858    -0.73700
O175        O  0.14233436  0.57527390  0.84330677    -0.74200
O176        O  0.06538167  0.64961635  0.85135144    -0.73600
O177        O  0.14420582  0.64249106  0.92706047    -0.74400
O178        O  0.07582127  0.60749870  0.82384886    -0.73800
O179        O  0.10188867  0.66924741  0.91520498    -0.74200
O180        O  0.03239015  0.63741581  0.91769175    -0.74200
O181        O  0.02844390  0.58983451  0.93663120    -0.73900
C182        C  0.11570529  0.55508524  0.96870145     0.77800
C183        C  0.16720272  0.57554633  0.85926721     0.78300
C184        C  0.06132351  0.52036074  0.86926831     0.77300
C185        C  0.06574909  0.63508303  0.82574533     0.77700
C186        C  0.12941525  0.66788748  0.92580382     0.78800
C187        C  0.01789451  0.61704101  0.93323334     0.77900
C188        C  0.49274730  0.24112398  0.09611137     0.87200
C189        C  0.50420449  0.20801267  0.10128843    -0.53000
C190        C  0.48906034  0.19237185  0.12402571     0.10100
C191        C  0.46353022  0.21132409  0.13977659     0.21100
C192        C  0.45789325  0.23726290  0.08975930    -0.53800
C193        C  0.44252648  0.22185453  0.11271896     0.10200
C194        C  0.49460221  0.25658410  0.12792954    -0.53300
C195        C  0.47896522  0.24135865  0.15083974     0.10800
H196        H  0.52143174  0.19696803  0.08685464     0.15300
H197        H  0.45128495  0.19837943  0.15823275     0.01100
H198        H  0.44631910  0.24624982  0.06927558     0.15600
H199        H  0.50608999  0.27854831  0.13155810     0.15400
C200        C  0.23060781  0.09622403  0.50411765     0.87200
C201        C  0.20207568  0.10685149  0.52173250    -0.53000
C202        C  0.18808427  0.13231519  0.50951606     0.10100
C203        C  0.20442920  0.14521745  0.48058119     0.21100
C204        C  0.21946237  0.09206321  0.47039086    -0.53800
C205        C  0.20595002  0.11786340  0.45788716     0.10200
C206        C  0.25175236  0.12437465  0.50292392    -0.53300
C207        C  0.23844985  0.15011880  0.49039602     0.10800
H208        H  0.19301953  0.09433497  0.54155414     0.15300
H209        H  0.19303606  0.16602123  0.47088773     0.01100
H210        H  0.22336790  0.07142237  0.45699284     0.15600
H211        H  0.27567459  0.12349119  0.51059092     0.15400
C212        C  0.09116234  0.49688695  0.22290779     0.87200
C213        C  0.10335188  0.50776964  0.19136534    -0.53000
C214        C  0.12622250  0.48983480  0.17976179     0.10100
C215        C  0.13525071  0.46262144  0.20062943     0.21100
C216        C  0.08168605  0.46301653  0.21774781    -0.53800
C217        C  0.10494752  0.44495562  0.20647977     0.10200
C218        C  0.12004478  0.49512069  0.24382517    -0.53300
C219        C  0.14318602  0.47692793  0.23226573     0.10800
H220        H  0.09411958  0.52716434  0.17835608     0.15300
H221        H  0.15384238  0.44827407  0.19050342     0.01100
H222        H  0.05911889  0.45395120  0.22385684     0.15600
H223        H  0.12165690  0.50687500  0.26593859     0.15400
Zn224      Zn  0.35349856  0.40624041  0.42167481     1.49700
Zn225      Zn  0.39219144  0.41774636  0.36020401     1.49400
Zn226      Zn  0.42301516  0.42995033  0.42547874     1.49100
Zn227      Zn  0.41075835  0.36067530  0.40437864     1.49500
O228        O  0.39480112  0.40331277  0.40301264    -1.83400
O229        O  0.32207860  0.42346831  0.39099691    -0.74000
O230        O  0.41217091  0.45984096  0.35485416    -0.73900
O231        O  0.40264108  0.44671267  0.46327561    -0.73400
O232        O  0.34785366  0.42236175  0.34655191    -0.74100
O233        O  0.35387793  0.43069671  0.46229431    -0.73700
O234        O  0.43651944  0.46618128  0.39982304    -0.74200
O235        O  0.45141634  0.35787763  0.42873800    -0.73600
O236        O  0.41221650  0.38703452  0.33177178    -0.74400
O237        O  0.46059243  0.40700446  0.43999693    -0.73800
O238        O  0.42050313  0.34540829  0.36092687    -0.74200
O239        O  0.37819060  0.33229417  0.42271669    -0.74200
O240        O  0.33839955  0.36365662  0.43152809    -0.73900
C241        C  0.32287213  0.42607822  0.36155786     0.77800
C242        C  0.42948023  0.47560119  0.37274679     0.78300
C243        C  0.37595085  0.44526764  0.47539826     0.77300
C244        C  0.46862537  0.37877734  0.44038947     0.77700
C245        C  0.42100254  0.35912869  0.33475699     0.78800
C246        C  0.35035402  0.33685690  0.43128815     0.77900
Zn247      Zn  0.34683914  0.88425090  0.65902895     1.49700
Zn248      Zn  0.31640329  0.81906681  0.67017100     1.49400
Zn249      Zn  0.32325350  0.84170181  0.60197024     1.49100
Zn250      Zn  0.38374846  0.82261009  0.64124702     1.49500
O251        O  0.34288859  0.84218674  0.64293538    -1.83400
O252        O  0.32808051  0.88844288  0.70232340    -0.74000
O253        O  0.27420656  0.81193110  0.65176924    -0.73900
O254        O  0.31554451  0.88506013  0.58848989    -0.73400
O255        O  0.31132432  0.84071660  0.71049393    -0.74100
O256        O  0.32786422  0.91468235  0.62878850    -0.73700
O257        O  0.28129545  0.82043896  0.60157852    -0.74200
O258        O  0.39401823  0.81331186  0.59676423    -0.73600
O259        O  0.33516164  0.77801342  0.67888432    -0.74400
O260        O  0.35098014  0.82288318  0.56999666    -0.73800
O261        O  0.38400807  0.78109613  0.66339680    -0.74200
O262        O  0.41734430  0.85101758  0.65807605    -0.74200
O263        O  0.39192948  0.89522334  0.66391515    -0.73900
C264        C  0.31620698  0.86803354  0.71997511     0.77800
C265        C  0.26420219  0.81196031  0.62398916     0.78300
C266        C  0.31751119  0.91137334  0.60126546     0.77300
C267        C  0.37886088  0.81365400  0.57136809     0.77700
C268        C  0.36185953  0.76617672  0.67578109     0.78800
C269        C  0.41696911  0.87974234  0.66438170     0.77900
C270        C  0.90147453  0.98308376  0.26012920     0.87200
C271        C  0.89240962  0.99725923  0.29102847    -0.53000
C272        C  0.86681042  0.98457197  0.30431498     0.10100
C273        C  0.85190338  0.95873575  0.28451215     0.21100
C274        C  0.90422394  0.94834002  0.26671010    -0.53800
C275        C  0.87829305  0.93527361  0.27924347     0.10200
C276        C  0.87270296  0.98595787  0.23964889    -0.53300
C277        C  0.84654900  0.97309877  0.25187559     0.10800
H278        H  0.90626282  0.01493037  0.30224544     0.15300
H279        H  0.83082343  0.94876893  0.29497424     0.01100
H280        H  0.92469733  0.93505820  0.26127366     0.15600
H281        H  0.87345967  0.99653423  0.21683351     0.15400
C282        C  0.49614726  0.73268175  0.39585587     0.87200
C283        C  0.48132952  0.70204386  0.38632583    -0.53000
C284        C  0.49529619  0.68813050  0.36181207     0.10100
C285        C  0.52252292  0.70660988  0.34849372     0.21100
C286        C  0.53061193  0.72513616  0.40085979    -0.53800
C287        C  0.54440104  0.71145314  0.37619168     0.10200
C288        C  0.49571843  0.75270357  0.36650140    -0.53300
C289        C  0.50975967  0.73924456  0.34152903     0.10800
H290        H  0.46343443  0.69080315  0.39986566     0.15300
H291        H  0.53360052  0.69532779  0.32837729     0.01100
H292        H  0.54330710  0.73024645  0.42194041     0.15600
H293        H  0.48580607  0.77567879  0.36593150     0.15400
C294        C  0.76162431  0.59938655  0.98885073     0.87200
C295        C  0.79221731  0.61108450  0.97510367    -0.53000
C296        C  0.80419957  0.63601439  0.98999190     0.10100
C297        C  0.78438602  0.64744038  0.01708450     0.21100
C298        C  0.76886753  0.59381769  0.02336359    -0.53800
C299        C  0.78088554  0.61897511  0.03825885     0.10200
C300        C  0.74022063  0.62744624  0.98841122    -0.53300
C301        C  0.75166126  0.65258266  0.00352740     0.10800
H302        H  0.80489568  0.59976201  0.95679765     0.15300
H303        H  0.79421412  0.66793487  0.02880854     0.01100
H304        H  0.76510352  0.57176336  0.03467652     0.15600
H305        H  0.71734843  0.62694731  0.97795204     0.15400
Zn306      Zn  0.56232401  0.92492078  0.05990594     1.49700
Zn307      Zn  0.63222334  0.90670744  0.07264224     1.49400
Zn308      Zn  0.58631419  0.92275082  0.12947021     1.49100
Zn309      Zn  0.57603225  0.86043145  0.09094032     1.49500
O310        O  0.58955570  0.90357040  0.08840876    -1.83400
O311        O  0.58457931  0.93642856  0.02150456    -0.74000
O312        O  0.66072465  0.92526921  0.10568308    -0.73900
O313        O  0.56272676  0.96383607  0.12758451    -0.73400
O314        O  0.63465648  0.92994818  0.03082384    -0.74100
O315        O  0.54712891  0.96426117  0.07846365    -0.73700
O316        O  0.62925561  0.93147239  0.14591223    -0.74200
O317        O  0.56854879  0.84829570  0.13543765    -0.73600
O318        O  0.64796582  0.86374278  0.06397363    -0.74400
O319        O  0.56659723  0.89314240  0.16031063    -0.73800
O320        O  0.60841306  0.83196644  0.07246885    -0.74200
O321        O  0.53446185  0.85405807  0.06977310    -0.74200
O322        O  0.52549901  0.89951696  0.04764342    -0.73900
C323        C  0.61259263  0.93850027  0.01300751     0.77800
C324        C  0.65617195  0.93224651  0.13406338     0.78300
C325        C  0.54886020  0.97697073  0.10493841     0.77300
C326        C  0.56324038  0.86390664  0.15981430     0.77700
C327        C  0.63619488  0.83680544  0.06388323     0.78800
C328        C  0.51740587  0.87198291  0.05371030     0.77900
C329        C  0.69129293  0.71523736  0.02141980     0.16700
C330        C  0.66426419  0.73164791  0.02826623    -0.32400
C331        C  0.66744154  0.76242867  0.03756783     0.21100
C332        C  0.69622920  0.77638252  0.03941778     0.03300
C333        C  0.72327177  0.75990684  0.03267985    -0.22100
C334        C  0.72013543  0.72895627  0.02389157     0.12400
S335        S  0.69230170  0.67756829  0.01051874    -0.05800
C336        C  0.73214344  0.67996372  0.00976747    -0.09200
C337        C  0.74370896  0.70879585  0.01737996    -0.25800
S338        S  0.69518669  0.81399280  0.05082168    -0.03000
C339        C  0.65558246  0.81079211  0.05373661    -0.16500
C340        C  0.64400409  0.78200114  0.04595195    -0.14500
H341        H  0.64176745  0.72078639  0.02673376     0.20900
H342        H  0.74579379  0.77066153  0.03452512     0.16900
H343        H  0.76799123  0.71474654  0.01825015     0.19400
H344        H  0.61976782  0.77576276  0.04631646     0.12800
C345        C  0.52916893  0.77173420  0.26048998     0.16700
C346        C  0.53836104  0.77620002  0.22967251    -0.32400
C347        C  0.54186679  0.80666521  0.21916188     0.21100
C348        C  0.53639580  0.83159690  0.23840568     0.03300
C349        C  0.52690909  0.82711690  0.26911922    -0.22100
C350        C  0.52346159  0.79665572  0.27963927     0.12400
S351        S  0.52501001  0.73667031  0.27815622    -0.05800
C352        C  0.51527489  0.75569444  0.31177964    -0.09200
C353        C  0.51534018  0.78764488  0.30896418    -0.25800
S354        S  0.54287351  0.86670182  0.22150826    -0.03000
C355        C  0.55306918  0.84762489  0.18808998    -0.16500
C356        C  0.55128752  0.81571497  0.19023314    -0.14500
H357        H  0.54300661  0.75678414  0.21467532     0.20900
H358        H  0.52277713  0.84652221  0.28428154     0.16900
H359        H  0.51077734  0.80362495  0.32760084     0.19400
H360        H  0.55697148  0.79993064  0.17171132     0.12800
C361        C  0.71850860  0.94912144  0.19591901     0.16700
C362        C  0.73600146  0.95204182  0.22334021    -0.32400
C363        C  0.76749067  0.95956149  0.22054544     0.21100
C364        C  0.78061086  0.96446282  0.19171164     0.03300
C365        C  0.76322631  0.96143854  0.16438789    -0.22100
C366        C  0.73200160  0.95339171  0.16714280     0.12400
S367        S  0.68023333  0.93946862  0.19415702    -0.05800
C368        C  0.68261362  0.94056255  0.15421748    -0.09200
C369        C  0.71163662  0.94833415  0.14315229    -0.25800
S370        S  0.81888544  0.97326011  0.19286765    -0.03000
C371        C  0.81786860  0.96987637  0.23278666    -0.16500
C372        C  0.78879722  0.96246975  0.24427642    -0.14500
H373        H  0.72561659  0.94823175  0.24580693     0.20900
H374        H  0.77372547  0.96482206  0.14189997     0.16900
H375        H  0.71759327  0.94996714  0.11885435     0.19400
H376        H  0.78346898  0.95924735  0.26854489     0.12800
C377        C  0.40953460  0.78925208  0.49179075     0.16700
C378        C  0.41427544  0.78256227  0.46035135    -0.32400
C379        C  0.44236829  0.76858368  0.45224092     0.21100
C380        C  0.46463708  0.76184841  0.47444410     0.03300
C381        C  0.45989521  0.76840942  0.50570569    -0.22100
C382        C  0.43192722  0.78219948  0.51379933     0.12400
S383        S  0.37707309  0.80585706  0.50676224    -0.05800
C384        C  0.39403604  0.80309191  0.54293138    -0.09200
C385        C  0.42321679  0.79008319  0.54307905    -0.25800
S386        S  0.49696831  0.74487648  0.46045522    -0.03000
C387        C  0.48074173  0.74673795  0.42386577    -0.16500
C388        C  0.45134887  0.75965638  0.42313644    -0.14500
H389        H  0.39682406  0.78787141  0.44304645     0.20900
H390        H  0.47726606  0.76287797  0.52303768     0.16900
H391        H  0.43731233  0.78642693  0.56359414     0.19400
H392        H  0.43729506  0.76215166  0.40243830     0.12800
C393        C  0.44583194  0.55858314  0.34663135     0.16700
C394        C  0.44314424  0.58945294  0.33705308    -0.32400
C395        C  0.46606300  0.61021218  0.34693254     0.21100
C396        C  0.49108399  0.60040234  0.36462781     0.03300
C397        C  0.49375672  0.56963217  0.37415503    -0.22100
C398        C  0.47033567  0.54917749  0.36521661     0.12400
S399        S  0.41922057  0.53028866  0.33941640    -0.05800
C400        C  0.44076634  0.50602233  0.36271218    -0.09200
C401        C  0.46745827  0.51914802  0.37463664    -0.25800
S402        S  0.51564237  0.62911644  0.37563809    -0.03000
C403        C  0.49162264  0.65478257  0.35695947    -0.16500
C404        C  0.46612850  0.64162656  0.34264827    -0.14500
H405        H  0.42344965  0.59717762  0.32351244     0.20900
H406        H  0.51266176  0.56221666  0.38896056     0.16900
H407        H  0.48334905  0.50762875  0.39032991     0.19400
H408        H  0.44798723  0.65449076  0.33102778     0.12800
C409        C  0.24404407  0.44897169  0.32708999     0.16700
C410        C  0.21383640  0.45949511  0.32187301    -0.32400
C411        C  0.20339161  0.46126123  0.29110612     0.21100
C412        C  0.22197847  0.45246637  0.26660332     0.03300
C413        C  0.25222801  0.44192584  0.27179321    -0.22100
C414        C  0.26284646  0.44063088  0.30256673     0.12400
S415        S  0.26115146  0.44573373  0.36270211    -0.05800
C416        C  0.29426582  0.43358051  0.34440704    -0.09200
C417        C  0.29174318  0.43182503  0.31235620    -0.25800
S418        S  0.20465342  0.45571765  0.23110946    -0.03000
C419        C  0.17208570  0.46950253  0.24939082    -0.16500
C420        C  0.17485453  0.47117816  0.28140838    -0.14500
H421        H  0.19917698  0.46623555  0.34096503     0.20900
H422        H  0.26689584  0.43522484  0.25268986     0.16900
H423        H  0.31011221  0.42460369  0.29702768     0.19400
H424        H  0.15674819  0.47853541  0.29695009     0.12800
C425        C  0.28612562  0.97348548  0.54650243     0.16700
C426        C  0.27234435  0.98983168  0.52207900    -0.32400
C427        C  0.26509794  0.02086250  0.52718783     0.21100
C428        C  0.27165732  0.03506160  0.55517432     0.03300
C429        C  0.28585922  0.01885789  0.57944914    -0.22100
C430        C  0.29272905  0.98772815  0.57450009     0.12400
S431        S  0.29477560  0.93521603  0.54559510    -0.05800
C432        C  0.30712008  0.93835353  0.58348017    -0.09200
C433        C  0.30504260  0.96770936  0.59579602    -0.25800
S434        S  0.26012473  0.07246780  0.55715655    -0.03000
C435        C  0.24619814  0.06914143  0.51975152    -0.16500
C436        C  0.25056192  0.04023133  0.50671308    -0.14500
H437        H  0.26687130  0.97868090  0.50033102     0.20900
H438        H  0.29069072  0.02983340  0.60143325     0.16900
H439        H  0.31132906  0.97386100  0.61928811     0.19400
H440        H  0.24330931  0.03321369  0.48382972     0.12800
C441        C  0.29678880  0.21397906  0.47080522     0.16700
C442        C  0.32342603  0.23084820  0.46392048    -0.32400
C443        C  0.31970056  0.26171528  0.45528768     0.21100
C444        C  0.29071506  0.27533465  0.45381524     0.03300
C445        C  0.26394272  0.25831221  0.46046342    -0.22100
C446        C  0.26768414  0.22725103  0.46890174     0.12400
S447        S  0.29680901  0.17632300  0.48156419    -0.05800
C448        C  0.25700023  0.17796390  0.48330962    -0.09200
C449        C  0.24464163  0.20661707  0.47592530    -0.25800
S450        S  0.29135736  0.31331735  0.44341717    -0.03000
C451        C  0.33105036  0.31059120  0.44072244    -0.16500
C452        C  0.34289928  0.28172804  0.44757857    -0.14500
H453        H  0.34611737  0.22032077  0.46519755     0.20900
H454        H  0.24124002  0.26879688  0.45908739     0.16900
H455        H  0.22025038  0.21217629  0.47568739     0.19400
H456        H  0.36720810  0.27574840  0.44712992     0.12800
C457        C  0.51237427  0.05745068  0.09961640     0.16700
C458        C  0.49955149  0.08512444  0.08898264    -0.32400
C459        C  0.49871254  0.10996206  0.10954048     0.21100
C460        C  0.50956061  0.10741213  0.13973094     0.03300
C461        C  0.52226308  0.07945049  0.15052560    -0.22100
C462        C  0.52367174  0.05459528  0.12962768     0.12400
S463        S  0.51710228  0.02559836  0.07723881    -0.05800
C464        C  0.53497156  0.00790815  0.10831856    -0.08800
C465        C  0.53669437  0.02601334  0.13482871    -0.25800
S466        S  0.50775545  0.14122750  0.16025759    -0.03000
C467        C  0.49295369  0.15872044  0.12748096    -0.16500
C468        C  0.48919209  0.13918741  0.10246783    -0.14500
H469        H  0.49138065  0.08748074  0.06528753     0.20900
H470        H  0.53144173  0.07742816  0.17386215     0.16900
H471        H  0.54760526  0.01898782  0.15637104     0.19400
H472        H  0.48104295  0.14641180  0.07977498     0.12800
C473        C  0.45947150  0.26933124  0.23352389     0.16700
C474        C  0.45190454  0.27276807  0.26503186    -0.32400
C475        C  0.44556289  0.30275143  0.27577279     0.21100
C476        C  0.44661195  0.32795375  0.25593685     0.03300
C477        C  0.45446597  0.32455171  0.22477902    -0.22100
C478        C  0.46095461  0.29483428  0.21416409     0.12400
S479        S  0.46678623  0.23509933  0.21509965    -0.05800
C480        C  0.47257432  0.25571238  0.18131084    -0.09200
C481        C  0.46857057  0.28724185  0.18447457    -0.25800
S482        S  0.43710543  0.36219027  0.27251574    -0.03000
C483        C  0.43170919  0.34275197  0.30688402    -0.16500
C484        C  0.43720225  0.31117598  0.30531607    -0.14500
H485        H  0.45068666  0.25298377  0.28036447     0.20900
H486        H  0.45521881  0.34428457  0.20932748     0.16900
H487        H  0.47019557  0.30382669  0.16572688     0.19400
H488        H  0.43463222  0.29524636  0.32451357     0.12800
C489        C  0.88533577  0.65270169  0.96028649     0.16700
C490        C  0.91098672  0.65720017  0.94099661    -0.32400
C491        C  0.93910213  0.64358119  0.94996792     0.21100
C492        C  0.94160289  0.62648287  0.97708998     0.03300
C493        C  0.91630011  0.62302377  0.99695440    -0.22100
C494        C  0.88815016  0.63635541  0.98783909     0.12400
S495        S  0.84819125  0.66275916  0.95102584    -0.05800
C496        C  0.83651456  0.64514365  0.98479767    -0.09200
C497        C  0.86026252  0.63243228  0.00224524    -0.25800
S498        S  0.97646025  0.60863013  0.98202545    -0.03000
C499        C  0.98802122  0.62471833  0.94743443    -0.16500
C500        C  0.96594205  0.64312557  0.93310295    -0.14500
H501        H  0.90873992  0.66939429  0.91914951     0.20900
H502        H  0.91806398  0.60917512  0.01783437     0.16900
H503        H  0.85688689  0.61858397  0.02290518     0.19400
H504        H  0.96881353  0.65415480  0.91074049     0.12800
C505        C  0.14924130  0.51848935  0.09982701     0.16700
C506        C  0.15652702  0.53774089  0.07469530    -0.32400
C507        C  0.14210535  0.53159849  0.04616037     0.21100
C508        C  0.12189737  0.50698692  0.04274153     0.03300
C509        C  0.11562089  0.48707760  0.06746401    -0.22100
C510        C  0.12947034  0.49358093  0.09605801     0.12400
S511        S  0.15952163  0.52534466  0.13746800    -0.05800
C512        C  0.13710228  0.49425983  0.14793347    -0.09200
C513        C  0.12283843  0.47932551  0.12353646    -0.25800
S514        S  0.10353260  0.50559182  0.00782098    -0.03000
C515        C  0.12314971  0.53856153  0.99754060    -0.16500
C516        C  0.14337416  0.54957249  0.01994233    -0.14500
H517        H  0.17122529  0.55773427  0.07771998     0.20900
H518        H  0.09913430  0.46843389  0.06500359     0.16900
H519        H  0.10613693  0.46089151  0.12614616     0.19400
H520        H  0.15664954  0.57065049  0.01791713     0.12800
C521        C  0.03117033  0.66452566  0.74920012     0.16700
C522        C  0.01775058  0.66769145  0.71978310    -0.32400
C523        C  0.01527022  0.69750469  0.70738220     0.21100
C524        C  0.02542161  0.72312311  0.72357262     0.03300
C525        C  0.03815967  0.72006222  0.75339116    -0.22100
C526        C  0.04084609  0.69016845  0.76573380     0.12400
S527        S  0.03808017  0.63012792  0.76728876    -0.05800
C528        C  0.05376419  0.65045599  0.79772666    -0.09200
C529        C  0.05353377  0.68223595  0.79383298    -0.25800
S530        S  0.02289559  0.75684650  0.70313838    -0.03000
C531        C  0.00817946  0.73621299  0.67225573    -0.16500
C532        C  0.00500811  0.70485190  0.67824871    -0.14500
H533        H  0.01039071  0.64768894  0.70672911     0.20900
H534        H  0.04642540  0.73997868  0.76602938     0.16900
H535        H  0.06266142  0.69858694  0.81044086     0.19400
H536        H  0.99740618  0.68775878  0.66169561     0.12800
C537        C  0.12636972  0.78842253  0.63021088     0.16700
C538        C  0.15360556  0.79524779  0.64635009    -0.32400
C539        C  0.18120671  0.79573009  0.62958370     0.21100
C540        C  0.18181791  0.78974629  0.59805129     0.03300
C541        C  0.15449624  0.78237497  0.58192914    -0.22100
C542        C  0.12675105  0.78191358  0.59879325     0.12400
S543        S  0.09065629  0.78763709  0.64648469    -0.05800
C544        C  0.07560404  0.77816306  0.61070871    -0.09200
C545        C  0.09764081  0.77582672  0.58743635    -0.25800
S546        S  0.21770912  0.79340728  0.58184272    -0.03000
C547        C  0.23186190  0.80285629  0.61805725    -0.16500
C548        C  0.20978035  0.80286027  0.64120088    -0.14500
H549        H  0.15323878  0.80038805  0.67089643     0.20900
H550        H  0.15478096  0.77767825  0.55729588     0.16900
H551        H  0.09273942  0.77028144  0.56347643     0.19400
H552        H  0.21422249  0.80879029  0.66517994     0.12800
C553        C  0.34910621  0.47783698  0.60941513     0.16700
C554        C  0.33778421  0.46314578  0.58262831    -0.32400
C555        C  0.35429544  0.46728712  0.55488454     0.21100
C556        C  0.38045132  0.48576502  0.55392007     0.03300
C557        C  0.39129254  0.50089956  0.58037104    -0.22100
C558        C  0.37529374  0.49623944  0.60806341     0.12400
S559        S  0.33476620  0.47321864  0.64612494    -0.05800
C560        C  0.36457222  0.49604331  0.65937622    -0.09200
C561        C  0.38413389  0.50681758  0.63657294    -0.25800
S562        S  0.39909739  0.48585523  0.51933142    -0.03000
C563        C  0.37175763  0.46037526  0.50567636    -0.16500
C564        C  0.34891485  0.45284805  0.52696106    -0.14500
H565        H  0.31780374  0.44811155  0.58365711     0.20900
H566        H  0.41220466  0.51466391  0.57968875     0.16900
H567        H  0.40466364  0.52050329  0.64091446     0.19400
H568        H  0.33055773  0.43635135  0.52285205     0.12800
C569        C  0.35859098  0.68186979  0.70112610     0.16700
C570        C  0.34862247  0.65247504  0.70958336    -0.32400
C571        C  0.37031381  0.62867370  0.70910748     0.21100
C572        C  0.40089794  0.63374561  0.70115077     0.03300
C573        C  0.41100082  0.66341271  0.69266220    -0.22100
C574        C  0.38899001  0.68732550  0.69260736     0.12400
S575        S  0.33500470  0.71307845  0.69903431    -0.05800
C576        C  0.36608520  0.73405753  0.68596415    -0.09200
C577        C  0.39349981  0.71750064  0.68380736    -0.25800
S578        S  0.42326252  0.60111353  0.70215796    -0.03000
C579        C  0.39066073  0.58071105  0.71261955    -0.16500
C580        C  0.36436079  0.59851956  0.71563602    -0.14500
H581        H  0.32474812  0.64821002  0.71574869     0.20900
H582        H  0.43473231  0.66755794  0.68595680     0.16900
H583        H  0.41519742  0.72678708  0.67555311     0.19400
H584        H  0.34189297  0.58992631  0.72247974     0.12800
C585        C  0.27165752  0.54112502  0.77217705     0.16700
C586        C  0.24136880  0.55225518  0.77499911    -0.32400
C587        C  0.22958982  0.55607370  0.80498300     0.21100
C588        C  0.24730694  0.54951590  0.83103747     0.03300
C589        C  0.27756898  0.53823179  0.82819706    -0.22100
C590        C  0.28921155  0.53403352  0.79817705     0.12400
S591        S  0.29029514  0.53541284  0.73790325    -0.05800
C592        C  0.32212875  0.52293250  0.75865408    -0.09200
C593        C  0.31809779  0.52341054  0.79059719    -0.25800
S594        S  0.22880770  0.55597182  0.86533504    -0.03000
C595        C  0.19662707  0.56705502  0.84435370    -0.16500
C596        C  0.20045687  0.56599690  0.81246523    -0.14500
H597        H  0.22756506  0.55765553  0.75470221     0.20900
H598        H  0.29140171  0.53288932  0.84848865     0.16900
H599        H  0.33561574  0.51724345  0.80749368     0.19400
H600        H  0.18279930  0.57202728  0.79564006     0.12800
C601        C  0.43320258  0.84885942  0.04049466     0.16700
C602        C  0.40164854  0.84289971  0.04487779    -0.32400
C603        C  0.38125847  0.85077217  0.02072527     0.21100
C604        C  0.39196852  0.86266766  0.99288204     0.03300
C605        C  0.42348436  0.86855521  0.98848593    -0.22100
C606        C  0.44366201  0.86206081  0.01316538     0.12400
S607        S  0.46119128  0.84416068  0.06819015    -0.05800
C608        C  0.48684070  0.86149845  0.04322120    -0.09200
C609        C  0.47438474  0.86962181  0.01470912    -0.25800
S610        S  0.36356366  0.87228505  0.96705617    -0.03000
C611        C  0.33698693  0.86139024  0.99448031    -0.16500
C612        C  0.34956315  0.85023538  0.02187038    -0.14500
H613        H  0.39320722  0.83395764  0.06671661     0.20900
H614        H  0.43170404  0.87918751  0.96733433     0.16900
H615        H  0.48681963  0.88171145  0.99665249     0.19400
H616        H  0.33624135  0.84356095  0.04199040     0.12800
C617        C  0.28665392  0.86204224  0.85675495     0.16700
C618        C  0.28847399  0.84656628  0.82851124    -0.32400
C619        C  0.29612966  0.86382640  0.80225538     0.21100
C620        C  0.30182535  0.89523195  0.80378418     0.03300
C621        C  0.29957934  0.91093715  0.83219273    -0.22100
C622        C  0.29182789  0.89353862  0.85866335     0.12400
S623        S  0.27871363  0.84453587  0.89108722    -0.05800
C624        C  0.28212429  0.87992037  0.90869973    -0.09200
C625        C  0.28894894  0.90407838  0.88857866    -0.25800
S626        S  0.31226065  0.91129698  0.76896668    -0.03000
C627        C  0.30866822  0.87521747  0.75249532    -0.16500
C628        C  0.29975271  0.85237030  0.77308987    -0.14500
H629        H  0.28447943  0.82193599  0.82712339     0.20900
H630        H  0.30405044  0.93546766  0.83366997     0.16900
H631        H  0.29221619  0.92783620  0.89551646     0.19400
H632        H  0.29682893  0.82826682  0.76720258     0.12800
C633        C  0.21949125  0.76882194  0.96282925     0.16700
C634        C  0.21539766  0.73795495  0.95426390    -0.32400
C635        C  0.18509378  0.72750993  0.94947405     0.21100
C636        C  0.15988008  0.74689701  0.95298832     0.03300
C637        C  0.16395871  0.77772297  0.96206203    -0.22100
C638        C  0.19435447  0.78818487  0.96688424     0.12400
S639        S  0.25449955  0.78625218  0.96775303    -0.05800
C640        C  0.23529177  0.82015474  0.97556962    -0.09200
C641        C  0.20325682  0.81762303  0.97451944    -0.25800
S642        S  0.12511666  0.72996285  0.94452615    -0.03000
C643        C  0.14482201  0.69633873  0.93651906    -0.16500
C644        C  0.17659727  0.69848361  0.94032102    -0.14500
H645        H  0.23503946  0.72286382  0.95091422     0.20900
H646        H  0.14436502  0.79301204  0.96470643     0.16900
H647        H  0.18731604  0.83656828  0.97775790     0.19400
H648        H  0.19273981  0.67991686  0.93597461     0.12800
C649        C  0.71310287  0.53149590  0.95627300     0.16700
C650        C  0.69021368  0.50953751  0.94985916    -0.32400
C651        C  0.69533858  0.48942061  0.92503617     0.21100
C652        C  0.72197948  0.49122045  0.90735761     0.03300
C653        C  0.74468315  0.51328426  0.91363288    -0.22100
C654        C  0.73960259  0.53327284  0.93847975     0.12400
S655        S  0.71159217  0.55777673  0.98549435    -0.05800
C656        C  0.74693150  0.57174414  0.97334718    -0.09200
C657        C  0.75907685  0.55614194  0.94809026    -0.25800
S658        S  0.72468445  0.46401573  0.87919824    -0.03000
C659        C  0.68965057  0.44973976  0.89148597    -0.16500
C660        C  0.67650902  0.46570804  0.91587543    -0.14500
H661        H  0.66950797  0.50798769  0.96378970     0.20900
H662        H  0.76557630  0.51459481  0.89994692     0.16900
H663        H  0.78075319  0.56099985  0.93679022     0.19400
H664        H  0.65494664  0.45963905  0.92698923     0.12800
C665        C  0.58662684  0.28963149  0.00255429     0.16700
C666        C  0.58093770  0.27046321  0.02801887    -0.32400
C667        C  0.55155570  0.27165994  0.04139792     0.21100
C668        C  0.52881696  0.29131207  0.03027723     0.03300
C669        C  0.53475973  0.31118920  0.00519400    -0.22100
C670        C  0.56418247  0.30973334  0.99150307     0.12400
S671        S  0.61988310  0.28924901  0.98156858    -0.05800
C672        C  0.60370243  0.31663029  0.95750805    -0.09200
C673        C  0.57403055  0.32567049  0.96576558    -0.25800
S674        S  0.49416065  0.28767482  0.04891072    -0.03000
C675        C  0.51034369  0.25870483  0.07135537    -0.16500
C676        C  0.54140196  0.25354688  0.06524855    -0.14500
H677        H  0.59835543  0.25455248  0.03641667     0.20900
H678        H  0.51701714  0.32640513  0.99620485     0.16900
H679        H  0.55995430  0.34189849  0.95283730     0.19400
H680        H  0.55585751  0.23697420  0.07724367     0.12800
C681        C  0.50622010  0.40762344  0.78271643     0.16700
C682        C  0.48278444  0.41365663  0.76105537    -0.32400
C683        C  0.46567749  0.44087099  0.76448593     0.21100
C684        C  0.47126117  0.46107560  0.78863230     0.03300
C685        C  0.49465621  0.45495979  0.81052749    -0.22100
C686        C  0.51207624  0.42781854  0.80688395     0.12400
S687        S  0.53037857  0.37655850  0.78147891    -0.05800
C688        C  0.54892277  0.39081515  0.81381468    -0.09200
C689        C  0.53654200  0.41821299  0.82494413    -0.25800
S690        S  0.44783498  0.49287218  0.78828093    -0.03000
C691        C  0.43069999  0.47914924  0.75474524    -0.16500
C692        C  0.44256144  0.45090827  0.74517552    -0.14500
H693        H  0.47839977  0.39803141  0.74200808     0.20900
H694        H  0.49934055  0.47082771  0.82929746     0.16900
H695        H  0.54548249  0.43084791  0.84464961     0.19400
H696        H  0.43486856  0.43782639  0.72535523     0.12800
C697        C  0.85630354  0.99634115  0.39205830     0.16700
C698        C  0.85738049  0.99313862  0.42461008    -0.32400
C699        C  0.86372222  0.01971976  0.44235571     0.21100
C700        C  0.86839537  0.04806091  0.42817370     0.03300
C701        C  0.86673320  0.05131351  0.39596851    -0.22100
C702        C  0.86080456  0.02491280  0.37836763     0.12400
S703        S  0.85265660  0.96680088  0.36577782    -0.05800
C704        C  0.85798885  0.99335467  0.33634253    -0.09200
C705        C  0.86133188  0.02340331  0.34672723    -0.25800
S706        S  0.87751668  0.07725960  0.45285031    -0.03000
C707        C  0.87495295  0.05143632  0.48312577    -0.16500
C708        C  0.86725366  0.02154683  0.47414713    -0.14500
H709        H  0.85447728  0.97081988  0.43551965     0.20900
H710        H  0.87097827  0.07338908  0.38498280     0.16900
H711        H  0.86623869  0.04296105  0.33186981     0.19400
H712        H  0.86507437  0.00217291  0.48986878     0.12800
C713        C  0.05145300  0.14744207  0.52813874     0.16700
C714        C  0.07600900  0.15272875  0.50758353    -0.32400
C715        C  0.10624765  0.15084568  0.51955504     0.21100
C716        C  0.11160079  0.14530780  0.55080892     0.03300
C717        C  0.08715423  0.14103793  0.57140783    -0.22100
C718        C  0.05716619  0.14148569  0.55922701     0.12400
S719        S  0.01335190  0.14402246  0.51770914    -0.05800
C720        C  0.00552835  0.13332316  0.55540259    -0.09200
C721        C  0.03100742  0.13355881  0.57492476    -0.25800
S722        S  0.14930171  0.13941541  0.56036131    -0.03000
C723        C  0.15817889  0.14324091  0.52167041    -0.16500
C724        C  0.13314138  0.15028222  0.50271249    -0.14500
H725        H  0.07181317  0.15605877  0.48303873     0.20900
H726        H  0.09142144  0.13535508  0.59551792     0.16900
H727        H  0.03067280  0.12680623  0.59911697     0.19400
H728        H  0.13410614  0.15167428  0.47766929     0.12800
C729        C  0.95438165  0.87755467  0.62210919     0.16700
C730        C  0.93398846  0.90240371  0.61997454    -0.32400
C731        C  0.94641873  0.93208321  0.62160059     0.21100
C732        C  0.97776844  0.93715794  0.62589554     0.03300
C733        C  0.99831300  0.91208645  0.62859842    -0.22100
C734        C  0.98585330  0.88213914  0.62636439     0.12400
S735        S  0.94369887  0.84015963  0.61711812    -0.05800
C736        C  0.98204675  0.83016961  0.62043163    -0.09200
C737        C  0.00192265  0.85473814  0.62589259    -0.25800
S738        S  0.98784348  0.97549092  0.62564361    -0.03000
C739        C  0.94942026  0.98428490  0.61909554    -0.16500
C740        C  0.93021564  0.95879250  0.61776483    -0.14500
H741        H  0.90950385  0.89876389  0.61600172     0.20900
H742        H  0.02294910  0.91574801  0.63127076     0.16900
H743        H  0.02685012  0.85283426  0.62741011     0.19400
H744        H  0.90553132  0.95969753  0.61344074     0.12800
C745        C  0.49649952  0.91126447  0.68933929     0.16700
C746        C  0.52667380  0.91553190  0.70064066    -0.32400
C747        C  0.53640543  0.94587034  0.70654491     0.21100
C748        C  0.51719858  0.97085093  0.70090046     0.03300
C749        C  0.48721250  0.96662409  0.68926682    -0.22100
C750        C  0.47725692  0.93630541  0.68400504     0.12400
S751        S  0.47955366  0.87629097  0.68235272    -0.05800
C752        C  0.44602160  0.89564034  0.67268029    -0.09200
C753        C  0.44832397  0.92750092  0.67450810    -0.25800
S754        S  0.53240548  0.00554197  0.71163237    -0.03000
C755        C  0.56487871  0.98627657  0.72476948    -0.16500
C756        C  0.56389473  0.95460829  0.71984246    -0.14500
H757        H  0.54156570  0.89602516  0.70551502     0.20900
H758        H  0.47193576  0.98606657  0.68546224     0.16900
H759        H  0.42963554  0.94341782  0.66956241     0.19400
H760        H  0.58170187  0.93864919  0.72732139     0.12800
C761        C  0.63587137  0.96653314  0.93101160     0.16700
C762        C  0.65011016  0.97400401  0.90259396    -0.32400
C763        C  0.63077985  0.98248659  0.87751895     0.21100
C764        C  0.59892914  0.98356754  0.88093799     0.03300
C765        C  0.58494957  0.97672784  0.90915834    -0.22100
C766        C  0.60403630  0.96811635  0.93384819     0.12400
S767        S  0.65422183  0.95384451  0.96416048    -0.05800
C768        C  0.61839293  0.95074083  0.98150602    -0.09200
C769        C  0.59403724  0.95938082  0.96243807    -0.25800
S770        S  0.57889030  0.99222245  0.84817973    -0.03000
C771        C  0.61356253  0.99440614  0.82896661    -0.16500
C772        C  0.63946336  0.98925751  0.84749683    -0.14500
H773        H  0.67494149  0.97259061  0.89995635     0.20900
H774        H  0.56004326  0.97733901  0.91156793     0.16900
H775        H  0.56988157  0.95862412  0.96891415     0.19400
H776        H  0.66304632  0.98925295  0.83921661     0.12800
C777        C  0.76226250  0.01970671  0.67140418     0.16700
C778        C  0.73637948  0.00168338  0.67883646    -0.32400
C779        C  0.71804034  0.01119656  0.70384363     0.21100
C780        C  0.72557247  0.03701337  0.72115383     0.03300
C781        C  0.75162098  0.05477082  0.71399646    -0.22100
C782        C  0.76946765  0.04572287  0.68856445     0.12400
S783        S  0.78633445  0.01344907  0.64067420    -0.05800
C784        C  0.80587886  0.04660326  0.65076439    -0.09200
C785        C  0.79442975  0.06116345  0.67689657    -0.25800
S786        S  0.69948174  0.04585139  0.74928448    -0.03000
C787        C  0.67756037  0.01489679  0.73723321    -0.16500
C788        C  0.69061623  0.99829158  0.71307035    -0.14500
H789        H  0.73022043  0.98172402  0.66509934     0.20900
H790        H  0.75714584  0.07536912  0.72703929     0.16900
H791        H  0.80356048  0.08232916  0.68656946     0.19400
H792        H  0.68009814  0.97852868  0.70196800     0.12800
C793        C  0.60662087  0.13709744  0.77948078     0.16700
C794        C  0.60150014  0.16903209  0.77748927    -0.32400
C795        C  0.61617721  0.18789439  0.79950469     0.21100
C796        C  0.63488145  0.17543635  0.82252749     0.03300
C797        C  0.63992937  0.14360136  0.82451981    -0.22100
C798        C  0.62548030  0.12482663  0.80242535     0.12400
S799        S  0.59135949  0.11019106  0.75495156    -0.05800
C800        C  0.61089369  0.08207008  0.77566939    -0.09200
C801        C  0.62800258  0.09341568  0.80041485    -0.25800
S802        S  0.65088626  0.20191988  0.84685629    -0.03000
C803        C  0.63239035  0.23032533  0.82580169    -0.16500
C804        C  0.61465074  0.21949971  0.80123470    -0.14500
H805        H  0.58692880  0.17873270  0.75950539     0.20900
H806        H  0.65466755  0.13391612  0.84236386     0.16900
H807        H  0.64141270  0.07961187  0.81643805     0.19400
H808        H  0.60162887  0.23393911  0.78537636     0.12800
C809        C  0.54939254  0.35080740  0.46598423     0.16700
C810        C  0.57822330  0.33601186  0.46882217    -0.32400
C811        C  0.60240495  0.35233617  0.48325813     0.21100
C812        C  0.59774991  0.38178658  0.49483359     0.03300
C813        C  0.56894413  0.39626767  0.49248548    -0.22100
C814        C  0.54511245  0.38029449  0.47750314     0.12400
S815        S  0.51777457  0.33636817  0.44684758    -0.05800
C816        C  0.49902112  0.37074899  0.45391037    -0.09200
C817        C  0.51637848  0.39175042  0.47077956    -0.25800
S818        S  0.63010252  0.39900969  0.50914236    -0.03000
C819        C  0.65046864  0.36645414  0.49918921    -0.16500
C820        C  0.63280317  0.34319648  0.48603593    -0.14500
H821        H  0.58194973  0.31330122  0.45917848     0.20900
H822        H  0.56560118  0.41954746  0.50086049     0.16900
H823        H  0.50877366  0.41474989  0.47683874     0.19400
H824        H  0.64198886  0.32165934  0.47740941     0.12800
C825        C  0.68662536  0.35587254  0.63112605     0.16700
C826        C  0.67103418  0.34543585  0.65740992    -0.32400
C827        C  0.68109860  0.35625138  0.68621480     0.21100
C828        C  0.70563805  0.37663323  0.68894045     0.03300
C829        C  0.72119422  0.38730646  0.66247973    -0.22100
C830        C  0.71106998  0.37639836  0.63350618     0.12400
S831        S  0.67803837  0.34475680  0.59435267    -0.05800
C832        C  0.70766496  0.36797329  0.58155309    -0.09200
C833        C  0.72321958  0.38358401  0.60502775    -0.25800
S834        S  0.71436376  0.38638821  0.72638598    -0.03000
C835        C  0.68451955  0.36276617  0.73820927    -0.16500
C836        C  0.66889355  0.34833338  0.71425261    -0.14500
H837        H  0.65194755  0.32936339  0.65550018     0.20900
H838        H  0.74040876  0.40321640  0.66439444     0.16900
H839        H  0.74262421  0.39896027  0.60161646     0.19400
H840        H  0.64965127  0.33262068  0.71719202     0.12800
C841        C  0.79620825  0.22403709  0.56111153     0.16700
C842        C  0.77183954  0.24512623  0.56396442    -0.32400
C843        C  0.76637137  0.26535034  0.53913153     0.21100
C844        C  0.78430398  0.26450773  0.51260446     0.03300
C845        C  0.80854510  0.24327332  0.50965884    -0.22100
C846        C  0.81413312  0.22317255  0.53456487     0.12400
S847        S  0.80677780  0.19795743  0.58881996    -0.05800
C848        C  0.83565612  0.18561634  0.56439369    -0.09200
C849        C  0.83689852  0.20118947  0.53631835    -0.25800
S850        S  0.77556988  0.29245709  0.48614027    -0.03000
C851        C  0.74769444  0.30585597  0.51124621    -0.16500
C852        C  0.74506481  0.28877316  0.53833309    -0.14500
H853        H  0.75808115  0.24607364  0.58484063     0.20900
H854        H  0.82281328  0.24285970  0.48911244     0.16900
H855        H  0.85337921  0.19653229  0.51810889     0.19400
H856        H  0.73001310  0.29451401  0.55744567     0.12800
C857        C  0.05217559  0.43451782  0.85022656     0.16700
C858        C  0.05770445  0.40297091  0.84553563    -0.32400
C859        C  0.03336489  0.38234050  0.85128663     0.21100
C860        C  0.00444076  0.39276590  0.86017691     0.03300
C861        C  0.99896646  0.42429597  0.86507933    -0.22100
C862        C  0.02365948  0.44480761  0.86048194     0.12400
S863        S  0.07933906  0.46291534  0.84667105    -0.05800
C864        C  0.05247404  0.48874270  0.86042416    -0.09200
C865        C  0.02380108  0.47588005  0.86674735    -0.25800
S866        S  0.97830682  0.36402453  0.86702709    -0.03000
C867        C  0.00686142  0.33763324  0.85887966    -0.16500
C868        C  0.03499281  0.35067647  0.85085606    -0.14500
H869        H  0.08032129  0.39477414  0.83876194     0.20900
H870        H  0.97675702  0.43235103  0.87322556     0.16900
H871        H  0.00443987  0.48841252  0.87634102     0.19400
H872        H  0.05582037  0.33765966  0.84623683     0.12800
C873        C  0.87299508  0.30973387  0.87044876     0.16700
C874        C  0.84673491  0.32563512  0.86035677    -0.32400
C875        C  0.81815879  0.31640038  0.87216342     0.21100
C876        C  0.81557625  0.29247519  0.89335093     0.03300
C877        C  0.84211885  0.27674468  0.90392827    -0.22100
C878        C  0.87091915  0.28595436  0.89187902     0.12400
S879        S  0.90926223  0.31668838  0.85717455    -0.05800
C880        C  0.92239997  0.28738815  0.88076402    -0.09200
C881        C  0.89941534  0.27315326  0.89818968    -0.25800
S882        S  0.77812101  0.28436685  0.90356979    -0.03000
C883        C  0.76617485  0.31353386  0.87888552    -0.16500
C884        C  0.79016441  0.32856429  0.86399240    -0.14500
H885        H  0.84844328  0.34408939  0.84347844     0.20900
H886        H  0.84035795  0.25788599  0.92032905     0.16900
H887        H  0.90317568  0.25396566  0.91386850     0.19400
H888        H  0.78726774  0.34719550  0.84745201     0.12800
C889        C  0.93776225  0.18847687  0.73264579     0.16700
C890        C  0.93629032  0.21396283  0.75251568    -0.32400
C891        C  0.95906699  0.21659004  0.77556675     0.21100
C892        C  0.98222264  0.19471240  0.77873371     0.03300
C893        C  0.98381962  0.16926253  0.75872406    -0.22100
C894        C  0.96108205  0.16669562  0.73554427     0.12400
S895        S  0.91213178  0.18124681  0.70348479    -0.05800
C896        C  0.93308539  0.14860568  0.69466834    -0.09200
C897        C  0.95863223  0.14374953  0.71366779    -0.25800
S898        S  0.00679665  0.20138071  0.80899458    -0.03000
C899        C  0.98568466  0.23409478  0.81766787    -0.16500
C900        C  0.96101413  0.23929875  0.79763479    -0.14500
H901        H  0.91803588  0.23092788  0.75021518     0.20900
H902        H  0.00186565  0.15211366  0.76126118     0.16900
H903        H  0.97452319  0.12458098  0.71156596     0.19400
H904        H  0.94446857  0.25788255  0.79978300     0.12800
C905        C  0.81013968  0.63061271  0.12170032     0.16700
C906        C  0.82369488  0.64184321  0.14886637    -0.32400
C907        C  0.81752946  0.62609650  0.17649128     0.21100
C908        C  0.79880181  0.60016974  0.17720473     0.03300
C909        C  0.78550126  0.58865391  0.14984487    -0.22100
C910        C  0.79156702  0.60458136  0.12211646     0.12400
S911        S  0.81385806  0.64741407  0.08623831    -0.05800
C912        C  0.79007439  0.61917512  0.07141481    -0.09200
C913        C  0.78009073  0.59775654  0.09323865    -0.25800
S914        S  0.79338639  0.58526671  0.21355370    -0.03000
C915        C  0.81665655  0.61433985  0.22771309    -0.16500
C916        C  0.82795554  0.63417935  0.20525536    -0.14500
H917        H  0.83805351  0.66230402  0.14856290     0.20900
H918        H  0.77071556  0.56850884  0.15021925     0.16900
H919        H  0.76466737  0.57867899  0.08852741     0.19400
H920        H  0.84262967  0.65391049  0.20979846     0.12800
C921        C  0.63187671  0.69814389  0.38397458     0.16700
C922        C  0.66343972  0.69947285  0.39125739    -0.32400
C923        C  0.68305136  0.67852466  0.37640109     0.21100
C924        C  0.67167245  0.65706315  0.35548321     0.03300
C925        C  0.64015105  0.65571582  0.34827564    -0.22100
C926        C  0.62062284  0.67685183  0.36283790     0.12400
S927        S  0.60435000  0.72173971  0.39908018    -0.05800
C928        C  0.57743756  0.70295057  0.37633805    -0.09200
C929        C  0.58943286  0.67954225  0.35829040    -0.25800
S930        S  0.69911355  0.63407217  0.33940457    -0.03000
C931        C  0.72636550  0.65368639  0.36085264    -0.16500
C932        C  0.71451969  0.67668608  0.37963053    -0.14500
H933        H  0.67234756  0.71628238  0.40753338     0.20900
H934        H  0.63128182  0.63914654  0.33173118     0.16900
H935        H  0.57609810  0.66499559  0.34287960     0.19400
H936        H  0.72822015  0.69161188  0.39436280     0.12800
C937        C  0.88244247  0.84657374  0.28696939     0.16700
C938        C  0.89073115  0.81535998  0.28559894    -0.32400
C939        C  0.87159346  0.79404751  0.30065027     0.21100
C940        C  0.84535883  0.80344418  0.31637783     0.03300
C941        C  0.83686517  0.83465896  0.31741201    -0.22100
C942        C  0.85607264  0.85599437  0.30238190     0.12400
S943        S  0.90306911  0.87588024  0.27087654    -0.05800
C944        C  0.87593631  0.90146773  0.28492934    -0.09200
C945        C  0.85210452  0.88742339  0.30120791    -0.25800
S946        S  0.82579389  0.77418472  0.33404115    -0.03000
C947        C  0.85312698  0.74894683  0.31993490    -0.16500
C948        C  0.87605129  0.76274063  0.30237007    -0.14500
H949        H  0.91137453  0.80804682  0.27357592     0.20900
H950        H  0.81638433  0.84201364  0.32967293     0.16900
H951        H  0.83305563  0.89933976  0.31201822     0.19400
H952        H  0.89518048  0.75060384  0.29184991     0.12800
C953        C  0.96380279  0.70386546  0.51415676     0.16700
C954        C  0.95965302  0.68739007  0.48653273    -0.32400
C955        C  0.92921880  0.68095599  0.47714895     0.21100
C956        C  0.90404128  0.69057401  0.49439494     0.03300
C957        C  0.90823987  0.70626983  0.52241212    -0.22100
C958        C  0.93863746  0.71264696  0.53180126     0.12400
S959        S  0.99865349  0.71569681  0.52868189    -0.05800
C960        C  0.97913063  0.73249228  0.55909843    -0.09200
C961        C  0.94729198  0.72855989  0.55775008    -0.25800
S962        S  0.86897985  0.68298138  0.47771304    -0.03000
C963        C  0.88841871  0.66622015  0.44741809    -0.16500
C964        C  0.92035858  0.66644803  0.45038592    -0.14500
H965        H  0.97922630  0.68051622  0.47261325     0.20900
H966        H  0.88865119  0.71385994  0.53592441     0.16900
H967        H  0.93125052  0.73761378  0.57463067     0.19400
H968        H  0.93624396  0.65769906  0.43319017     0.12800
C969        C  0.02494338  0.55262826  0.24694011     0.16700
C970        C  0.00210568  0.57547087  0.24849363    -0.32400
C971        C  0.98366432  0.57628271  0.27507210     0.21100
C972        C  0.98786314  0.55530609  0.29906483     0.03300
C973        C  0.01076583  0.53250909  0.29751803    -0.22100
C974        C  0.02911355  0.53161367  0.27086083     0.12400
S975        S  0.04927771  0.54757438  0.21652722    -0.05800
C976        C  0.06540246  0.51655320  0.23601924    -0.09200
C977        C  0.05220342  0.51085735  0.26472559    -0.25800
S978        S  0.96251072  0.55943337  0.32885920    -0.03000
C979        C  0.94595784  0.58970226  0.30879021    -0.16500
C980        C  0.95970056  0.59619889  0.28056669    -0.14500
H981        H  0.99867206  0.59173955  0.22964612     0.20900
H982        H  0.01391307  0.51595415  0.31615759     0.16900
H983        H  0.05913023  0.49235326  0.28020800     0.19400
H984        H  0.95202720  0.61394720  0.26454208     0.12800
C985        C  0.79004331  0.48143037  0.40635745     0.16700
C986        C  0.77504001  0.45326493  0.41128397    -0.32400
C987        C  0.77001836  0.44412590  0.44203087     0.21100
C988        C  0.77961370  0.46202646  0.46682450     0.03300
C989        C  0.79534139  0.48980532  0.46191464    -0.22100
C990        C  0.80028623  0.49901329  0.43116443     0.12400
S991        S  0.79589595  0.49796485  0.37089082    -0.05800
C992        C  0.81281477  0.52857887  0.38973907    -0.09200
C993        C  0.81381704  0.52590185  0.42171353    -0.25800
S994        S  0.76943509  0.44779704  0.50227376    -0.03000
C995        C  0.75197793  0.41732869  0.48347733    -0.16500
C996        C  0.75454688  0.41833713  0.45144865    -0.14500
H997        H  0.76685446  0.43950225  0.39201878     0.20900
H998        H  0.80270090  0.50400513  0.48118853     0.16900
H999        H  0.82274970  0.54336275  0.43725844     0.19400
H1000       H  0.74476035  0.40137623  0.43585691     0.12800
C1001       C  0.09014336  0.35765334  0.19623193     0.16700
C1002       C  0.07871875  0.32785562  0.19002669    -0.32400
C1003       C  0.09963907  0.30300416  0.19212169     0.21100
C1004       C  0.13021918  0.30784997  0.20061706     0.03300
C1005       C  0.14147645  0.33733051  0.20683254    -0.22100
C1006       C  0.12091928  0.36197877  0.20412902     0.12400
S1007       S  0.06931373  0.39128206  0.19438675    -0.05800
C1008       C  0.10281355  0.41102117  0.20354482    -0.09200
C1009       C  0.12825854  0.39227029  0.20827791    -0.25800
S1010       S  0.15247675  0.27570851  0.20127989    -0.03000
C1011       C  0.12068733  0.25493020  0.18933122    -0.16500
C1012       C  0.09392138  0.27237319  0.18556412    -0.14500
H1013       H  0.05480594  0.32428308  0.18336878     0.20900
H1014       H  0.16554307  0.34098382  0.21295214     0.16900
H1015       H  0.15110279  0.40028323  0.21478444     0.19400
H1016       H  0.07190191  0.26336853  0.17769835     0.12800
C1017       C  0.18349799  0.10196417  0.31944138     0.16700
C1018       C  0.18719573  0.08714901  0.34817855    -0.32400
C1019       C  0.19003849  0.10579278  0.37461430     0.21100
C1020       C  0.18895000  0.13766495  0.37256355     0.03300
C1021       C  0.18531242  0.15243993  0.34393500    -0.22100
C1022       C  0.18282479  0.13386951  0.31755606     0.12400
S1023       S  0.17932081  0.08377505  0.28449464    -0.05800
C1024       C  0.17697135  0.11963306  0.26730011    -0.09200
C1025       C  0.17932391  0.14409163  0.28779406    -0.25800
S1026       S  0.19343782  0.15621999  0.40701865    -0.03000
C1027       C  0.19746178  0.12071892  0.42463407    -0.16500
C1028       C  0.19479572  0.09589417  0.40445821    -0.14500
H1029       H  0.18802327  0.06224926  0.34984304     0.20900
H1030       H  0.18470709  0.17735312  0.34225574     0.16900
H1031       H  0.17793227  0.16820610  0.28131655     0.19400
H1032       H  0.19674621  0.07187085  0.41099359     0.12800
C1033       C  0.35537105  0.20713487  0.10098246     0.16700
C1034       C  0.32544954  0.20058985  0.08991008    -0.32400
C1035       C  0.30192864  0.19653806  0.11195596     0.21100
C1036       C  0.30802697  0.19953996  0.14339650     0.03300
C1037       C  0.33769691  0.20608351  0.15434414    -0.22100
C1038       C  0.36115478  0.20946685  0.13251114     0.12400
S1039       S  0.38749335  0.21216069  0.07854529    -0.05800
C1040       C  0.40876793  0.21667595  0.11220206    -0.09200
C1041       C  0.39157945  0.21482367  0.13906352    -0.25800
S1042       S  0.27721040  0.19341819  0.16673918    -0.03000
C1043       C  0.25553812  0.18596945  0.13406428    -0.16500
C1044       C  0.27157455  0.18865918  0.10635709    -0.14500
H1045       H  0.32084233  0.19827787  0.06535000     0.20900
H1046       H  0.34241091  0.20791206  0.17893830     0.16900
H1047       H  0.40074369  0.21750804  0.16228746     0.19400
H1048       H  0.26179015  0.18453751  0.08360912     0.12800
C1049       C  0.99702954  0.07098207  0.20463395     0.16700
C1050       C  0.96626491  0.06639507  0.21360828    -0.32400
C1051       C  0.95829647  0.03743494  0.22574474     0.21100
C1052       C  0.97987212  0.01396574  0.22853842     0.03300
C1053       C  0.01067000  0.01856941  0.21968822    -0.22100
C1054       C  0.01869968  0.04760792  0.20776779     0.12400
S1055       S  0.01149439  0.10465399  0.19002966    -0.05800
C1056       C  0.04724375  0.08720277  0.18840891    -0.09200
C1057       C  0.04753618  0.05675510  0.19846039    -0.25800
S1058       S  0.96549780  0.98051369  0.24361434    -0.03000
C1059       C  0.92987506  0.99828774  0.24641041    -0.16500
C1060       C  0.92974461  0.02870378  0.23621505    -0.14500
H1061       H  0.94932446  0.08467392  0.21143297     0.20900
H1062       H  0.02766739  0.00037324  0.22214784     0.16900
H1063       H  0.06787747  0.04220666  0.19936395     0.19400
H1064       H  0.90967957  0.04363718  0.23650213     0.12800
C1065       C  0.06211287  0.22380482  0.96081558     0.16700
C1066       C  0.08800331  0.21353499  0.97769914    -0.32400
C1067       C  0.08271236  0.19921898  0.00644384     0.21100
C1068       C  0.05296994  0.19507566  0.01757132     0.03300
C1069       C  0.02720677  0.20498008  0.00055506    -0.22100
C1070       C  0.03250737  0.21967676  0.97215859     0.12400
S1071       S  0.06333131  0.24231221  0.92587112    -0.05800
C1072       C  0.02346329  0.24518956  0.92685999    -0.09200
C1073       C  0.01032625  0.23174768  0.95292463    -0.25800
S1074       S  0.05114248  0.17893565  0.05350260    -0.03000
C1075       C  0.09093577  0.17782932  0.05390705    -0.16500
C1076       C  0.10472489  0.18902348  0.02715219    -0.14500
H1077       H  0.11120731  0.21704511  0.96909062     0.20900
H1078       H  0.00402553  0.20199945  0.00942358     0.16900
H1079       H  0.98590100  0.23023554  0.95772531     0.19400
H1080       H  0.12942195  0.19080188  0.02361326     0.12800
C1081       C  0.21076215  0.99825967  0.08516623     0.16700
C1082       C  0.22164063  0.96811947  0.08029673    -0.32400
C1083       C  0.23017756  0.95995738  0.04999003     0.21100
C1084       C  0.22815684  0.98091194  0.02576426     0.03300
C1085       C  0.21761684  0.01102187  0.03067483    -0.22100
C1086       C  0.20895371  0.01912078  0.06082341     0.12400
S1087       S  0.19828119  0.01268813  0.11984580    -0.05800
C1088       C  0.19058204  0.04715203  0.10122412    -0.09200
C1089       C  0.19762413  0.04714591  0.06989720    -0.25800
S1090       S  0.23930405  0.96669943  0.99075453    -0.03000
C1091       C  0.24696229  0.93185163  0.00865521    -0.16500
C1092       C  0.24096670  0.93178878  0.04032527    -0.14500
H1093       H  0.22311730  0.95169866  0.09920206     0.20900
H1094       H  0.21600279  0.02738868  0.01173150     0.16900
H1095       H  0.19426872  0.06657320  0.05441125     0.19400
H1096       H  0.24453422  0.91212647  0.05545773     0.12800
loop_ 
_geom_bond_atom_site_label_1 
_geom_bond_atom_site_label_2 
_geom_bond_distance 
_geom_bond_site_symmetry_2 
_ccdc_geom_bond_type 
Zn1           O5   1.908       .  S
Zn1           O6   1.975       .  S
Zn1          O10   1.982       .  S
Zn1          O17   1.970       .  S
Zn2           O5   1.964       .  S
Zn2           O7   2.022       .  S
Zn2           O9   2.053       .  S
Zn2          O13   2.043       .  S
Zn3           O5   1.961       .  S
Zn3           O8   2.047       .  S
Zn3          O11   2.041       .  S
Zn3          O14   2.021       .  S
Zn4           O5   1.958       .  S
Zn4          O12   2.034       .  S
Zn4          O15   2.004       .  S
Zn4          O16   2.069       .  S
O6           C18   1.270       .  A
O7           C19   1.276       .  A
O8           C20   1.275       .  A
O9           C18   1.276       .  A
O10          C20   1.269       .  A
O11          C19   1.277       .  A
O12          C21   1.278       .  A
O13          C22   1.277       .  A
O14          C21   1.276       .  A
O15          C22   1.274       .  A
O16          C23   1.277       .  A
O17          C23   1.268       .  A
C18        C1043   1.472       .  S
C19        C1088   1.478       .  S
C20        C1024   1.473       .  S
C21        C1056   1.476       .  S
C22        C1075   1.472       .  S
C23        C1011   1.476       .  S
Zn24         O28   1.919       .  S
Zn24         O29   2.003       .  S
Zn24         O33   1.995       .  S
Zn24         O40   2.006       .  S
Zn25         O28   1.942       .  S
Zn25         O30   2.007       .  S
Zn25         O32   2.036       .  S
Zn25         O36   2.018       .  S
Zn26         O28   1.942       .  S
Zn26         O31   2.036       .  S
Zn26         O34   2.042       .  S
Zn26         O37   2.009       .  S
Zn27         O28   1.945       .  S
Zn27         O35   2.027       .  S
Zn27         O38   2.008       .  S
Zn27         O39   2.024       .  S
O29          C41   1.272       .  A
O30          C42   1.273       .  A
O31          C43   1.277       .  A
O32          C41   1.275       .  A
O33          C43   1.272       .  A
O34          C42   1.278       .  A
O35          C44   1.274       .  A
O36          C45   1.275       .  A
O37          C44   1.274       .  A
O38          C45   1.273       .  A
O39          C46   1.274       .  A
O40          C46   1.273       .  A
C41         C963   1.469       .  S
C42         C947   1.474       .  S
C43         C979   1.471       .  S
C44         C915   1.472       .  S
C45         C931   1.469       .  S
C46         C992   1.466       .  S
C47          C48   1.535       .  S
C47          C53   1.528       .  S
C47          C51   1.551   1_455  S
C47        C1072   1.517       .  S
C48          H55   1.086       .  S
C48          C49   1.363       .  D
C49          C50   1.542   1_455  S
C49         C867   1.479       .  S
C50          C54   1.549       .  S
C50          C52   1.538       .  S
C50          H56   1.109       .  S
C51          H57   1.083       .  S
C51          C52   1.368       .  D
C52         C880   1.484       .  S
C53          H58   1.086       .  S
C53          C54   1.365   1_455  D
C54         C899   1.489       .  S
C59          C60   1.528       .  S
C59          C65   1.527       .  S
C59          C63   1.546       .  S
C59         C995   1.509       .  S
C60          H67   1.087       .  S
C60          C61   1.361       .  D
C61          C62   1.540       .  S
C61         C819   1.475       .  S
C62          C66   1.545       .  S
C62          C64   1.541       .  S
C62          H68   1.109       .  S
C63          H69   1.084       .  S
C63          C64   1.371       .  D
C64         C832   1.483       .  S
C65          H70   1.086       .  S
C65          C66   1.364       .  D
C66         C851   1.481       .  S
C71          C72   1.528   1_545  S
C71          C77   1.532   1_545  S
C71          C75   1.545       .  S
C71         C755   1.518   1_545  S
C72          H79   1.087       .  S
C72          C73   1.362       .  D
C73          C74   1.539   1_565  S
C73         C771   1.479       .  S
C74          C78   1.546       .  S
C74          C76   1.543       .  S
C74          H80   1.108       .  S
C75          H81   1.084       .  S
C75          C76   1.370       .  D
C76         C800   1.487       .  S
C77          H82   1.085       .  S
C77          C78   1.370   1_565  D
C78         C787   1.486       .  S
Zn83         O87   1.962       .  S
Zn83         O88   2.042       .  S
Zn83         O92   1.995       .  S
Zn83         O99   2.056       .  S
Zn84         O87   1.934       .  S
Zn84         O89   1.997       .  S
Zn84         O91   2.000       .  S
Zn84         O95   1.997       .  S
Zn85         O87   1.973       .  S
Zn85         O90   2.056       .  S
Zn85         O93   2.058       .  S
Zn85         O96   2.008       .  S
Zn86         O87   1.962       .  S
Zn86         O94   2.035       .  S
Zn86         O97   2.037       .  S
Zn86         O98   2.018       .  S
O88         C100   1.276       .  A
O89         C101   1.271       .  A
O90         C102   1.278       .  A
O91         C100   1.272       .  A
O92         C102   1.273       .  A
O93         C101   1.277       .  A
O94         C103   1.276       .  A
O95         C104   1.271       .  A
O96         C103   1.275       .  A
O97         C104   1.276       .  A
O98         C105   1.275       .  A
O99         C105   1.277       .  A
C100        C784   1.475       .  S
C101        C896   1.478       .  S
C102        C739   1.476   1_545  S
C103        C720   1.473   1_655  S
C104        C848   1.473       .  S
C105        C707   1.482       .  S
Zn106       O110   1.961       .  S
Zn106       O111   2.029       .  S
Zn106       O115   2.029       .  S
Zn106       O122   2.035       .  S
Zn107       O110   1.952       .  S
Zn107       O112   2.013       .  S
Zn107       O114   2.029       .  S
Zn107       O118   2.033       .  S
Zn108       O110   1.946       .  S
Zn108       O113   1.992       .  S
Zn108       O116   2.019       .  S
Zn108       O119   2.005       .  S
Zn109       O110   1.956       .  S
Zn109       O117   2.047       .  S
Zn109       O120   2.012       .  S
Zn109       O121   2.021       .  S
O111        C123   1.275       .  A
O112        C124   1.274       .  A
O113        C125   1.271       .  A
O114        C123   1.276       .  A
O115        C125   1.276       .  A
O116        C124   1.272       .  A
O117        C126   1.275       .  A
O118        C127   1.276       .  A
O119        C126   1.273       .  A
O120        C127   1.274       .  A
O121        C128   1.275       .  A
O122        C128   1.276       .  A
C123        C688   1.478       .  S
C124        C835   1.473       .  S
C125        C659   1.468       .  S
C126        C883   1.479       .  S
C127        C803   1.475       .  S
C128        C672   1.475       .  S
C129        C130   1.534   1_556  S
C129        C135   1.540       .  S
C129        C133   1.550       .  S
C129       C1091   1.519   1_556  S
C130        H137   1.087       .  S
C130        C131   1.362   1_554  D
C131        C132   1.533       .  S
C131        C611   1.470       .  S
C132        C136   1.540       .  S
C132        C134   1.535       .  S
C132        H138   1.109       .  S
C133        H139   1.084       .  S
C133        C134   1.367       .  D
C134        C624   1.481       .  S
C135        H140   1.086   1_556  S
C135        C136   1.370       .  D
C136        C640   1.485       .  S
C141        C142   1.542       .  S
C141        C147   1.540       .  S
C141        C145   1.543       .  S
C141        C691   1.523       .  S
C142        H149   1.083       .  S
C142        C143   1.361       .  D
C143        C144   1.531       .  S
C143        C560   1.472       .  S
C144        C148   1.538       .  S
C144        C146   1.538       .  S
C144        H150   1.109       .  S
C145        H151   1.086       .  S
C145        C146   1.367       .  D
C146        C579   1.477       .  S
C147        H152   1.085       .  S
C147        C148   1.370       .  D
C148        C592   1.487       .  S
C153        C154   1.529       .  S
C153        C159   1.533       .  S
C153        C157   1.545   1_655  S
C153        C960   1.515       .  S
C154        H161   1.087       .  S
C154        C155   1.361       .  D
C155        C156   1.538   1_655  S
C155        C736   1.477       .  S
C156        C160   1.544       .  S
C156        C158   1.541       .  S
C156        H162   1.108       .  S
C157        H163   1.084       .  S
C157        C158   1.372       .  D
C158        C544   1.486       .  S
C159        H164   1.084       .  S
C159        C160   1.369   1_655  D
C160        C531   1.489       .  S
Zn165       O169   1.955       .  S
Zn165       O170   2.000       .  S
Zn165       O174   2.025       .  S
Zn165       O181   2.016       .  S
Zn166       O169   1.968       .  S
Zn166       O171   2.029       .  S
Zn166       O173   2.031       .  S
Zn166       O177   2.022       .  S
Zn167       O169   1.960       .  S
Zn167       O172   2.039       .  S
Zn167       O175   2.027       .  S
Zn167       O178   2.031       .  S
Zn168       O169   1.969       .  S
Zn168       O176   2.017       .  S
Zn168       O179   2.036       .  S
Zn168       O180   2.034       .  S
O170        C182   1.272       .  A
O171        C183   1.274       .  A
O172        C184   1.274       .  A
O173        C182   1.274       .  A
O174        C184   1.273       .  A
O175        C183   1.275       .  A
O176        C185   1.274       .  A
O177        C186   1.275       .  A
O178        C185   1.276       .  A
O179        C186   1.275       .  A
O180        C187   1.275       .  A
O181        C187   1.273       .  A
C182        C515   1.469       .  S
C183        C595   1.476       .  S
C184        C864   1.475       .  S
C185        C528   1.471       .  S
C186        C643   1.477       .  S
C187        C499   1.472   1_455  S
C188        C189   1.534       .  S
C188        C194   1.532       .  S
C188        C192   1.541       .  S
C188        C675   1.518       .  S
C189        H196   1.086       .  S
C189        C190   1.362       .  D
C190        C191   1.539       .  S
C190        C467   1.476       .  S
C191        C195   1.540       .  S
C191        C193   1.544       .  S
C191        H197   1.110       .  S
C192        H198   1.085       .  S
C192        C193   1.368       .  D
C193       C1040   1.478       .  S
C194        H199   1.086       .  S
C194        C195   1.369       .  D
C195        C480   1.484       .  S
C200        C201   1.525       .  S
C200        C206   1.527       .  S
C200        C204   1.542       .  S
C200        C435   1.510       .  S
C201        H208   1.086       .  S
C201        C202   1.363       .  D
C202        C203   1.542       .  S
C202        C723   1.477       .  S
C203        C207   1.545       .  S
C203        C205   1.542       .  S
C203        H209   1.108       .  S
C204        H210   1.081       .  S
C204        C205   1.370       .  D
C205       C1027   1.484       .  S
C206        H211   1.086       .  S
C206        C207   1.365       .  D
C207        C448   1.482       .  S
C212        C213   1.535       .  S
C212        C218   1.540       .  S
C212        C216   1.542       .  S
C212        C976   1.516       .  S
C213        H220   1.085       .  S
C213        C214   1.357       .  D
C214        C215   1.532       .  S
C214        C512   1.466       .  S
C215        C219   1.539       .  S
C215        C217   1.540       .  S
C215        H221   1.109       .  S
C216        H222   1.086       .  S
C216        C217   1.367       .  D
C217       C1008   1.480       .  S
C218        H223   1.085       .  S
C218        C219   1.371       .  D
C219        C419   1.484       .  S
Zn224       O228   1.968       .  S
Zn224       O229   2.034       .  S
Zn224       O233   2.052       .  S
Zn224       O240   2.004       .  S
Zn225       O228   1.951       .  S
Zn225       O230   2.033       .  S
Zn225       O232   2.014       .  S
Zn225       O236   2.012       .  S
Zn226       O228   1.939       .  S
Zn226       O231   1.997       .  S
Zn226       O234   2.008       .  S
Zn226       O237   2.003       .  S
Zn227       O228   1.974       .  S
Zn227       O235   2.048       .  S
Zn227       O238   2.036       .  S
Zn227       O239   2.033       .  S
O229        C241   1.276       .  A
O230        C242   1.274       .  A
O231        C243   1.271       .  A
O232        C241   1.273       .  A
O233        C243   1.276       .  A
O234        C242   1.272       .  A
O235        C244   1.276       .  A
O236        C245   1.274       .  A
O237        C244   1.273       .  A
O238        C245   1.275       .  A
O239        C246   1.277       .  A
O240        C246   1.272       .  A
C241        C416   1.475       .  S
C242        C400   1.471       .  S
C243        C563   1.475       .  S
C244        C816   1.477       .  S
C245        C483   1.475       .  S
C246        C451   1.470       .  S
Zn247       O251   1.961       .  S
Zn247       O252   2.049       .  S
Zn247       O256   2.024       .  S
Zn247       O263   2.018       .  S
Zn248       O251   1.925       .  S
Zn248       O253   2.012       .  S
Zn248       O255   1.993       .  S
Zn248       O259   1.991       .  S
Zn249       O251   1.958       .  S
Zn249       O254   1.994       .  S
Zn249       O257   2.036       .  S
Zn249       O260   2.008       .  S
Zn250       O251   1.963       .  S
Zn250       O258   2.014       .  S
Zn250       O261   2.036       .  S
Zn250       O262   2.038       .  S
O252        C264   1.276       .  A
O253        C265   1.273       .  A
O254        C266   1.272       .  A
O255        C264   1.272       .  A
O256        C266   1.276       .  A
O257        C265   1.274       .  A
O258        C267   1.275       .  A
O259        C268   1.272       .  A
O260        C267   1.272       .  A
O261        C268   1.275       .  A
O262        C269   1.276       .  A
O263        C269   1.274       .  A
C264        C627   1.476       .  S
C265        C547   1.475       .  S
C266        C432   1.467       .  S
C267        C384   1.469       .  S
C268        C576   1.470       .  S
C269        C752   1.477       .  S
C270        C271   1.523       .  S
C270        C276   1.528       .  S
C270        C274   1.537       .  S
C270       C1059   1.517       .  S
C271        H278   1.087   1_565  S
C271        C272   1.365       .  D
C272        C273   1.550       .  S
C272        C704   1.486       .  S
C273        C277   1.555       .  S
C273        C275   1.547       .  S
C273        H279   1.107       .  S
C274        H280   1.084       .  S
C274        C275   1.370       .  D
C275        C944   1.489       .  S
C276        H281   1.085       .  S
C276        C277   1.369       .  D
C277        C371   1.493       .  S
C282        C283   1.532       .  S
C282        C288   1.534       .  S
C282        C286   1.541       .  S
C282        C387   1.513       .  S
C283        H290   1.087       .  S
C283        C284   1.363       .  D
C284        C285   1.538       .  S
C284        C403   1.471       .  S
C285        C289   1.547       .  S
C285        C287   1.536       .  S
C285        H291   1.109       .  S
C286        H292   1.084       .  S
C286        C287   1.360       .  D
C287        C928   1.476       .  S
C288        H293   1.085       .  S
C288        C289   1.371       .  D
C289        C352   1.487       .  S
C294        C295   1.539       .  S
C294        C300   1.529       .  S
C294        C298   1.539   1_556  S
C294        C656   1.513       .  S
C295        H302   1.083       .  S
C295        C296   1.361       .  D
C296        C297   1.536   1_556  S
C296        C496   1.471       .  S
C297        C301   1.545       .  S
C297        C299   1.541       .  S
C297        H303   1.108       .  S
C298        H304   1.085       .  S
C298        C299   1.369       .  D
C299        C912   1.483       .  S
C300        H305   1.086       .  S
C300        C301   1.364   1_556  D
C301        C336   1.483       .  S
Zn306       O310   1.933       .  S
Zn306       O311   1.983       .  S
Zn306       O315   1.999       .  S
Zn306       O322   2.007       .  S
Zn307       O310   1.975       .  S
Zn307       O312   2.048       .  S
Zn307       O314   2.067       .  S
Zn307       O318   2.020       .  S
Zn308       O310   1.965       .  S
Zn308       O313   2.054       .  S
Zn308       O316   2.022       .  S
Zn308       O319   2.037       .  S
Zn309       O310   1.963       .  S
Zn309       O317   2.017       .  S
Zn309       O320   2.034       .  S
Zn309       O321   2.033       .  S
O311        C323   1.271       .  A
O312        C324   1.279       .  A
O313        C325   1.277       .  A
O314        C323   1.277       .  A
O315        C325   1.272       .  A
O316        C324   1.274       .  A
O317        C326   1.274       .  A
O318        C327   1.275       .  A
O319        C326   1.276       .  A
O320        C327   1.277       .  A
O321        C328   1.273       .  A
O322        C328   1.271       .  A
C323        C768   1.480   1_554  S
C324        C368   1.479       .  S
C325        C464   1.478   1_565  S
C326        C355   1.477       .  S
C327        C339   1.475       .  S
C328        C608   1.469       .  S
C329        S335   1.702       .  A
C329        C334   1.386       .  A
C329        C330   1.402       .  A
C330        C331   1.402       .  A
C330        H341   1.083       .  S
C331        C340   1.373       .  A
C331        C332   1.387       .  A
C332        S338   1.706       .  A
C332        C333   1.403       .  A
C333        C334   1.402       .  A
C333        H342   1.083       .  S
C334        C337   1.374       .  A
S335        C336   1.727       .  A
C336        C337   1.387       .  A
C337        H343   1.082       .  S
S338        C339   1.724       .  A
C339        C340   1.387       .  A
C340        H344   1.083       .  S
C345        S351   1.709       .  A
C345        C350   1.385       .  A
C345        C346   1.403       .  A
C346        C347   1.404       .  A
C346        H357   1.083       .  S
C347        C356   1.371       .  A
C347        C348   1.386       .  A
C348        S354   1.710       .  A
C348        C349   1.402       .  A
C349        C350   1.404       .  A
C349        H358   1.083       .  S
C350        C353   1.371       .  A
S351        C352   1.725       .  A
C352        C353   1.391       .  A
C353        H359   1.082       .  S
S354        C355   1.724       .  A
C355        C356   1.389       .  A
C356        H360   1.083       .  S
C361        S367   1.710       .  A
C361        C366   1.387       .  A
C361        C362   1.408       .  A
C362        C363   1.407       .  A
C362        H373   1.083       .  S
C363        C372   1.381       .  A
C363        C364   1.386       .  A
C364        S370   1.700       .  A
C364        C365   1.402       .  A
C365        C366   1.401       .  A
C365        H374   1.083       .  S
C366        C369   1.375       .  A
S367        C368   1.728       .  A
C368        C369   1.387       .  A
C369        H375   1.083       .  S
S370        C371   1.729       .  A
C371        C372   1.391       .  A
C372        H376   1.082       .  S
C377        S383   1.709       .  A
C377        C382   1.387       .  A
C377        C378   1.404       .  A
C378        C379   1.404       .  A
C378        H389   1.084       .  S
C379        C388   1.373       .  A
C379        C380   1.386       .  A
C380        S386   1.695       .  A
C380        C381   1.396       .  A
C381        C382   1.396       .  A
C381        H390   1.084       .  S
C382        C385   1.365       .  A
S383        C384   1.725       .  A
C384        C385   1.383       .  A
C385        H391   1.084       .  S
S386        C387   1.727       .  A
C387        C388   1.390       .  A
C388        H392   1.083       .  S
C393        S399   1.711       .  A
C393        C398   1.387       .  A
C393        C394   1.405       .  A
C394        C395   1.405       .  A
C394        H405   1.083       .  S
C395        C404   1.374       .  A
C395        C396   1.388       .  A
C396        S402   1.704       .  A
C396        C397   1.400       .  A
C397        C398   1.401       .  A
C397        H406   1.084       .  S
C398        C401   1.369       .  A
S399        C400   1.724       .  A
C400        C401   1.385       .  A
C401        H407   1.084       .  S
S402        C403   1.719       .  A
C403        C404   1.386       .  A
C404        H408   1.083       .  S
C409        S415   1.708       .  A
C409        C414   1.387       .  A
C409        C410   1.401       .  A
C410        C411   1.402       .  A
C410        H421   1.083       .  S
C411        C420   1.371       .  A
C411        C412   1.386       .  A
C412        S418   1.708       .  A
C412        C413   1.403       .  A
C413        C414   1.404       .  A
C413        H422   1.083       .  S
C414        C417   1.372       .  A
S415        C416   1.722       .  A
C416        C417   1.389       .  A
C417        H423   1.083       .  S
S418        C419   1.726       .  A
C419        C420   1.388       .  A
C420        H424   1.082       .  S
C425        S431   1.702       .  A
C425        C430   1.387       .  A
C425        C426   1.399       .  A
C426        C427   1.400   1_565  A
C426        H437   1.082       .  S
C427        C436   1.368       .  A
C427        C428   1.386       .  A
C428        S434   1.700       .  A
C428        C429   1.399       .  A
C429        C430   1.400   1_545  A
C429        H438   1.082       .  S
C430        C433   1.368       .  A
S431        C432   1.723       .  A
C432        C433   1.384       .  A
C433        H439   1.083       .  S
S434        C435   1.727       .  A
C435        C436   1.389       .  A
C436        H440   1.079       .  S
C441        S447   1.696       .  A
C441        C446   1.386       .  A
C441        C442   1.398       .  A
C442        C443   1.398       .  A
C442        H453   1.084       .  S
C443        C452   1.369       .  A
C443        C444   1.387       .  A
C444        S450   1.706       .  A
C444        C445   1.404       .  A
C445        C446   1.403       .  A
C445        H454   1.084       .  S
C446        C449   1.374       .  A
S447        C448   1.726       .  A
C448        C449   1.388       .  A
C449        H455   1.082       .  S
S450        C451   1.726       .  A
C451        C452   1.383       .  A
C452        H456   1.083       .  S
C457        S463   1.701       .  A
C457        C462   1.387       .  A
C457        C458   1.397       .  A
C458        C459   1.398       .  A
C458        H469   1.085       .  S
C459        C468   1.366       .  A
C459        C460   1.387       .  A
C460        S466   1.718       .  A
C460        C461   1.408       .  A
C461        C462   1.409       .  A
C461        H470   1.084       .  S
C462        C465   1.379       .  A
S463        C464   1.723       .  A
C464        C465   1.391       .  A
C465        H471   1.083       .  S
S466        C467   1.724       .  A
C467        C468   1.383       .  A
C468        H472   1.085       .  S
C473        S479   1.716       .  A
C473        C478   1.386       .  A
C473        C474   1.408       .  A
C474        C475   1.409       .  A
C474        H485   1.083       .  S
C475        C484   1.377       .  A
C475        C476   1.387       .  A
C476        S482   1.701       .  A
C476        C477   1.397       .  A
C477        C478   1.398       .  A
C477        H486   1.084       .  S
C478        C481   1.366       .  A
S479        C480   1.727       .  A
C480        C481   1.386       .  A
C481        H487   1.083       .  S
S482        C483   1.721       .  A
C483        C484   1.392       .  A
C484        H488   1.083       .  S
C489        S495   1.710       .  A
C489        C494   1.387       .  A
C489        C490   1.404       .  A
C490        C491   1.404       .  A
C490        H501   1.083       .  S
C491        C500   1.373       .  A
C491        C492   1.387       .  A
C492        S498   1.707       .  A
C492        C493   1.401       .  A
C493        C494   1.402       .  A
C493        H502   1.084   1_556  S
C494        C497   1.370   1_556  A
S495        C496   1.721       .  A
C496        C497   1.384   1_556  A
C497        H503   1.084       .  S
S498        C499   1.722       .  A
C499        C500   1.387       .  A
C500        H504   1.083       .  S
C505        S511   1.709       .  A
C505        C510   1.388       .  A
C505        C506   1.404       .  A
C506        C507   1.404       .  A
C506        H517   1.083       .  S
C507        C516   1.373       .  A
C507        C508   1.388       .  A
C508        S514   1.702       .  A
C508        C509   1.398       .  A
C509        C510   1.399       .  A
C509        H518   1.083       .  S
C510        C513   1.367       .  A
S511        C512   1.721       .  A
C512        C513   1.381       .  A
C513        H519   1.084       .  S
S514        C515   1.721   1_554  A
C515        C516   1.387   1_556  A
C516        H520   1.083       .  S
C521        S527   1.707       .  A
C521        C526   1.387       .  A
C521        C522   1.400       .  A
C522        C523   1.402       .  A
C522        H533   1.083       .  S
C523        C532   1.368       .  A
C523        C524   1.385       .  A
C524        S530   1.709       .  A
C524        C525   1.403       .  A
C525        C526   1.405       .  A
C525        H534   1.083       .  S
C526        C529   1.372       .  A
S527        C528   1.721       .  A
C528        C529   1.388       .  A
C529        H535   1.083       .  S
S530        C531   1.727       .  A
C531        C532   1.391       .  A
C532        H536   1.081   1_455  S
C537        S543   1.701       .  A
C537        C542   1.386       .  A
C537        C538   1.398       .  A
C538        C539   1.399       .  A
C538        H549   1.083       .  S
C539        C548   1.368       .  A
C539        C540   1.386       .  A
C540        S546   1.713       .  A
C540        C541   1.406       .  A
C541        C542   1.407       .  A
C541        H550   1.083       .  S
C542        C545   1.375       .  A
S543        C544   1.724       .  A
C544        C545   1.392       .  A
C545        H551   1.082       .  S
S546        C547   1.726       .  A
C547        C548   1.385       .  A
C548        H552   1.083       .  S
C553        S559   1.715       .  A
C553        C558   1.387       .  A
C553        C554   1.408       .  A
C554        C555   1.408       .  A
C554        H565   1.084       .  S
C555        C564   1.379       .  A
C555        C556   1.388       .  A
C556        S562   1.700       .  A
C556        C557   1.398       .  A
C557        C558   1.398       .  A
C557        H566   1.085       .  S
C558        C561   1.367       .  A
S559        C560   1.723       .  A
C560        C561   1.381       .  A
C561        H567   1.084       .  S
S562        C563   1.722       .  A
C563        C564   1.391       .  A
C564        H568   1.083       .  S
C569        S575   1.697       .  A
C569        C574   1.387       .  A
C569        C570   1.394       .  A
C570        C571   1.395       .  A
C570        H581   1.084       .  S
C571        C580   1.362       .  A
C571        C572   1.386       .  A
C572        S578   1.715       .  A
C572        C573   1.407       .  A
C573        C574   1.408       .  A
C573        H582   1.083       .  S
C574        C577   1.376       .  A
S575        C576   1.720       .  A
C576        C577   1.390       .  A
C577        H583   1.083       .  S
S578        C579   1.726       .  A
C579        C580   1.382       .  A
C580        H584   1.083       .  S
C585        S591   1.707       .  A
C585        C590   1.386       .  A
C585        C586   1.402       .  A
C586        C587   1.403       .  A
C586        H597   1.083       .  S
C587        C596   1.372       .  A
C587        C588   1.387       .  A
C588        S594   1.710       .  A
C588        C589   1.404       .  A
C589        C590   1.404       .  A
C589        H598   1.083       .  S
C590        C593   1.373       .  A
S591        C592   1.725       .  A
C592        C593   1.390       .  A
C593        H599   1.082       .  S
S594        C595   1.725       .  A
C595        C596   1.388       .  A
C596        H600   1.083       .  S
C601        S607   1.709       .  A
C601        C606   1.387       .  A
C601        C602   1.403       .  A
C602        C603   1.404       .  A
C602        H613   1.083       .  S
C603        C612   1.373       .  A
C603        C604   1.388   1_554  A
C604        S610   1.706       .  A
C604        C605   1.401       .  A
C605        C606   1.402   1_556  A
C605        H614   1.083       .  S
C606        C609   1.371       .  A
S607        C608   1.722       .  A
C608        C609   1.385       .  A
C609        H615   1.083   1_554  S
S610        C611   1.719       .  A
C611        C612   1.385   1_556  A
C612        H616   1.083       .  S
C617        S623   1.699       .  A
C617        C622   1.387       .  A
C617        C618   1.396       .  A
C618        C619   1.397       .  A
C618        H629   1.084       .  S
C619        C628   1.364       .  A
C619        C620   1.386       .  A
C620        S626   1.717       .  A
C620        C621   1.408       .  A
C621        C622   1.409       .  A
C621        H630   1.083       .  S
C622        C625   1.377       .  A
S623        C624   1.721       .  A
C624        C625   1.391       .  A
C625        H631   1.083       .  S
S626        C627   1.727       .  A
C627        C628   1.385       .  A
C628        H632   1.084       .  S
C633        S639   1.706       .  A
C633        C638   1.386       .  A
C633        C634   1.401       .  A
C634        C635   1.402       .  A
C634        H645   1.083       .  S
C635        C644   1.370       .  A
C635        C636   1.386       .  A
C636        S642   1.712       .  A
C636        C637   1.405       .  A
C637        C638   1.406       .  A
C637        H646   1.083       .  S
C638        C641   1.374       .  A
S639        C640   1.724       .  A
C640        C641   1.391       .  A
C641        H647   1.082       .  S
S642        C643   1.726       .  A
C643        C644   1.387       .  A
C644        H648   1.083       .  S
C649        S655   1.704       .  A
C649        C654   1.385       .  A
C649        C650   1.401       .  A
C650        C651   1.402       .  A
C650        H661   1.083       .  S
C651        C660   1.370       .  A
C651        C652   1.387       .  A
C652        S658   1.701       .  A
C652        C653   1.398       .  A
C653        C654   1.399       .  A
C653        H662   1.083       .  S
C654        C657   1.366       .  A
S655        C656   1.728       .  A
C656        C657   1.390       .  A
C657        H663   1.080       .  S
S658        C659   1.723       .  A
C659        C660   1.386       .  A
C660        H664   1.083       .  S
C665        S671   1.704   1_554  A
C665        C670   1.387   1_554  A
C665        C666   1.399       .  A
C666        C667   1.400       .  A
C666        H677   1.082       .  S
C667        C676   1.367       .  A
C667        C668   1.385       .  A
C668        S674   1.712       .  A
C668        C669   1.406       .  A
C669        C670   1.407   1_554  A
C669        H678   1.082   1_554  S
C670        C673   1.376       .  A
S671        C672   1.721       .  A
C672        C673   1.391       .  A
C673        H679   1.082       .  S
S674        C675   1.730       .  A
C675        C676   1.389       .  A
C676        H680   1.082       .  S
C681        S687   1.706       .  A
C681        C686   1.386       .  A
C681        C682   1.400       .  A
C682        C683   1.402       .  A
C682        H693   1.083       .  S
C683        C692   1.369       .  A
C683        C684   1.384       .  A
C684        S690   1.711       .  A
C684        C685   1.406       .  A
C685        C686   1.407       .  A
C685        H694   1.083       .  S
C686        C689   1.375       .  A
S687        C688   1.723       .  A
C688        C689   1.391       .  A
C689        H695   1.083       .  S
S690        C691   1.730       .  A
C691        C692   1.392       .  A
C692        H696   1.079       .  S
C697        S703   1.720       .  A
C697        C702   1.385   1_565  A
C697        C698   1.412       .  A
C698        C699   1.412   1_565  A
C698        H709   1.083       .  S
C699        C708   1.382       .  A
C699        C700   1.387       .  A
C700        S706   1.702       .  A
C700        C701   1.398       .  A
C701        C702   1.399       .  A
C701        H710   1.083       .  S
C702        C705   1.367       .  A
S703        C704   1.728       .  A
C704        C705   1.387   1_565  A
C705        H711   1.083       .  S
S706        C707   1.722       .  A
C707        C708   1.394       .  A
C708        H712   1.083       .  S
C713        S719   1.713       .  A
C713        C718   1.386       .  A
C713        C714   1.406       .  A
C714        C715   1.407       .  A
C714        H725   1.083       .  S
C715        C724   1.375       .  A
C715        C716   1.388       .  A
C716        S722   1.700       .  A
C716        C717   1.397       .  A
C717        C718   1.398       .  A
C717        H726   1.083       .  S
C718        C721   1.365       .  A
S719        C720   1.725       .  A
C720        C721   1.384       .  A
C721        H727   1.084       .  S
S722        C723   1.722       .  A
C723        C724   1.388       .  A
C724        H728   1.083       .  S
C729        S735   1.701       .  A
C729        C734   1.388       .  A
C729        C730   1.395       .  A
C730        C731   1.397       .  A
C730        H741   1.084       .  S
C731        C740   1.363       .  A
C731        C732   1.386       .  A
C732        S738   1.719       .  A
C732        C733   1.408       .  A
C733        C734   1.410       .  A
C733        H742   1.083   1_655  S
C734        C737   1.377   1_655  A
S735        C736   1.720       .  A
C736        C737   1.389   1_655  A
C737        H743   1.083       .  S
S738        C739   1.727       .  A
C739        C740   1.384       .  A
C740        H744   1.084       .  S
C745        S751   1.712       .  A
C745        C750   1.386       .  A
C745        C746   1.404       .  A
C746        C747   1.405       .  A
C746        H757   1.083       .  S
C747        C756   1.372       .  A
C747        C748   1.386       .  A
C748        S754   1.707   1_565  A
C748        C749   1.401       .  A
C749        C750   1.403       .  A
C749        H758   1.083       .  S
C750        C753   1.370       .  A
S751        C752   1.725       .  A
C752        C753   1.388       .  A
C753        H759   1.083       .  S
S754        C755   1.727   1_545  A
C755        C756   1.391       .  A
C756        H760   1.083       .  S
C761        S767   1.722       .  A
C761        C766   1.385       .  A
C761        C762   1.412       .  A
C762        C763   1.412       .  A
C762        H773   1.083       .  S
C763        C772   1.381       .  A
C763        C764   1.387       .  A
C764        S770   1.696       .  A
C764        C765   1.393       .  A
C765        C766   1.395       .  A
C765        H774   1.083       .  S
C766        C769   1.362       .  A
S767        C768   1.730       .  A
C768        C769   1.385       .  A
C769        H775   1.084       .  S
S770        C771   1.720       .  A
C771        C772   1.391       .  A
C772        H776   1.083       .  S
C777        S783   1.712       .  A
C777        C782   1.386       .  A
C777        C778   1.404       .  A
C778        C779   1.405       .  A
C778        H789   1.083   1_545  S
C779        C788   1.372   1_545  A
C779        C780   1.386       .  A
C780        S786   1.706       .  A
C780        C781   1.400       .  A
C781        C782   1.402       .  A
C781        H790   1.083       .  S
C782        C785   1.368       .  A
S783        C784   1.724       .  A
C784        C785   1.388       .  A
C785        H791   1.083       .  S
S786        C787   1.724       .  A
C787        C788   1.391   1_545  A
C788        H792   1.083       .  S
C793        S799   1.709       .  A
C793        C798   1.385       .  A
C793        C794   1.405       .  A
C794        C795   1.405       .  A
C794        H805   1.082       .  S
C795        C804   1.375       .  A
C795        C796   1.387       .  A
C796        S802   1.704       .  A
C796        C797   1.400       .  A
C797        C798   1.401       .  A
C797        H806   1.081       .  S
C798        C801   1.370       .  A
S799        C800   1.728       .  A
C800        C801   1.388       .  A
C801        H807   1.080       .  S
S802        C803   1.723       .  A
C803        C804   1.389       .  A
C804        H808   1.082       .  S
C809        S815   1.714       .  A
C809        C814   1.386       .  A
C809        C810   1.407       .  A
C810        C811   1.407       .  A
C810        H821   1.083       .  S
C811        C820   1.378       .  A
C811        C812   1.388       .  A
C812        S818   1.701       .  A
C812        C813   1.399       .  A
C813        C814   1.399       .  A
C813        H822   1.083       .  S
C814        C817   1.368       .  A
S815        C816   1.726       .  A
C816        C817   1.387       .  A
C817        H823   1.083       .  S
S818        C819   1.721       .  A
C819        C820   1.387       .  A
C820        H824   1.083       .  S
C825        S831   1.699       .  A
C825        C830   1.386       .  A
C825        C826   1.397       .  A
C826        C827   1.398       .  A
C826        H837   1.084       .  S
C827        C836   1.365       .  A
C827        C828   1.387       .  A
C828        S834   1.712       .  A
C828        C829   1.405       .  A
C829        C830   1.406       .  A
C829        H838   1.084       .  S
C830        C833   1.374       .  A
S831        C832   1.722       .  A
C832        C833   1.391       .  A
C833        H839   1.083       .  S
S834        C835   1.726       .  A
C835        C836   1.384       .  A
C836        H840   1.084       .  S
C841        S847   1.704       .  A
C841        C846   1.387       .  A
C841        C842   1.402       .  A
C842        C843   1.402       .  A
C842        H853   1.083       .  S
C843        C852   1.372       .  A
C843        C844   1.386       .  A
C844        S850   1.704       .  A
C844        C845   1.402       .  A
C845        C846   1.402       .  A
C845        H854   1.083       .  S
C846        C849   1.372       .  A
S847        C848   1.725       .  A
C848        C849   1.386       .  A
C849        H855   1.083       .  S
S850        C851   1.727       .  A
C851        C852   1.387       .  A
C852        H856   1.083       .  S
C857        S863   1.710       .  A
C857        C862   1.387       .  A
C857        C858   1.404       .  A
C858        C859   1.404       .  A
C858        H869   1.083       .  S
C859        C868   1.375       .  A
C859        C860   1.387       .  A
C860        S866   1.709   1_455  A
C860        C861   1.405   1_455  A
C861        C862   1.405   1_655  A
C861        H870   1.083       .  S
C862        C865   1.375       .  A
S863        C864   1.723       .  A
C864        C865   1.388       .  A
C865        H871   1.083       .  S
S866        C867   1.722   1_655  A
C867        C868   1.387       .  A
C868        H872   1.083       .  S
C873        S879   1.700       .  A
C873        C878   1.386       .  A
C873        C874   1.396       .  A
C874        C875   1.398       .  A
C874        H885   1.083       .  S
C875        C884   1.365       .  A
C875        C876   1.386       .  A
C876        S882   1.718       .  A
C876        C877   1.409       .  A
C877        C878   1.410       .  A
C877        H886   1.083       .  S
C878        C881   1.378       .  A
S879        C880   1.721       .  A
C880        C881   1.393       .  A
C881        H887   1.083       .  S
S882        C883   1.729       .  A
C883        C884   1.385       .  A
C884        H888   1.083       .  S
C889        S895   1.703       .  A
C889        C894   1.387       .  A
C889        C890   1.403       .  A
C890        C891   1.402       .  A
C890        H901   1.083       .  S
C891        C900   1.374       .  A
C891        C892   1.386       .  A
C892        S898   1.706   1_655  A
C892        C893   1.405       .  A
C893        C894   1.404       .  A
C893        H902   1.083   1_655  S
C894        C897   1.378       .  A
S895        C896   1.725       .  A
C896        C897   1.389       .  A
C897        H903   1.083       .  S
S898        C899   1.730   1_455  A
C899        C900   1.388       .  A
C900        H904   1.082       .  S
C905        S911   1.701       .  A
C905        C910   1.386       .  A
C905        C906   1.397       .  A
C906        C907   1.399       .  A
C906        H917   1.083       .  S
C907        C916   1.366       .  A
C907        C908   1.386       .  A
C908        S914   1.712       .  A
C908        C909   1.404       .  A
C909        C910   1.406       .  A
C909        H918   1.083       .  S
C910        C913   1.372       .  A
S911        C912   1.723       .  A
C912        C913   1.391       .  A
C913        H919   1.082       .  S
S914        C915   1.725       .  A
C915        C916   1.385       .  A
C916        H920   1.083       .  S
C921        S927   1.703       .  A
C921        C926   1.387       .  A
C921        C922   1.401       .  A
C922        C923   1.402       .  A
C922        H933   1.084       .  S
C923        C932   1.370       .  A
C923        C924   1.387       .  A
C924        S930   1.702       .  A
C924        C925   1.399       .  A
C925        C926   1.399       .  A
C925        H934   1.084       .  S
C926        C929   1.368       .  A
S927        C928   1.726       .  A
C928        C929   1.384       .  A
C929        H935   1.083       .  S
S930        C931   1.722       .  A
C931        C932   1.387       .  A
C932        H936   1.083       .  S
C937        S943   1.701       .  A
C937        C942   1.385       .  A
C937        C938   1.402       .  A
C938        C939   1.401       .  A
C938        H949   1.083       .  S
C939        C948   1.373       .  A
C939        C940   1.387       .  A
C940        S946   1.705       .  A
C940        C941   1.404       .  A
C941        C942   1.403       .  A
C941        H950   1.083       .  S
C942        C945   1.375       .  A
S943        C944   1.728       .  A
C944        C945   1.390       .  A
C945        H951   1.081       .  S
S946        C947   1.726       .  A
C947        C948   1.386       .  A
C948        H952   1.083       .  S
C953        S959   1.710       .  A
C953        C958   1.385       .  A
C953        C954   1.403       .  A
C954        C955   1.404       .  A
C954        H965   1.083       .  S
C955        C964   1.370       .  A
C955        C956   1.387       .  A
C956        S962   1.709       .  A
C956        C957   1.400       .  A
C957        C958   1.402       .  A
C957        H966   1.083       .  S
C958        C961   1.368       .  A
S959        C960   1.727       .  A
C960        C961   1.389       .  A
C961        H967   1.083       .  S
S962        C963   1.721       .  A
C963        C964   1.387       .  A
C964        H968   1.083       .  S
C969        S975   1.701       .  A
C969        C974   1.386       .  A
C969        C970   1.401       .  A
C970        C971   1.401   1_455  A
C970        H981   1.085   1_455  S
C971        C980   1.371       .  A
C971        C972   1.387       .  A
C972        S978   1.704       .  A
C972        C973   1.402   1_655  A
C973        C974   1.401       .  A
C973        H982   1.085       .  S
C974        C977   1.372       .  A
S975        C976   1.730       .  A
C976        C977   1.388       .  A
C977        H983   1.084       .  S
S978        C979   1.724       .  A
C979        C980   1.386       .  A
C980        H984   1.084       .  S
C985        S991   1.708       .  A
C985        C990   1.387       .  A
C985        C986   1.400       .  A
C986        C987   1.401       .  A
C986        H997   1.083       .  S
C987        C996   1.365       .  A
C987        C988   1.386       .  A
C988        S994   1.707       .  A
C988        C989   1.400       .  A
C989        C990   1.402       .  A
C989        H998   1.083       .  S
C990        C993   1.367       .  A
S991        C992   1.721       .  A
C992        C993   1.385       .  A
C993        H999   1.083       .  S
S994        C995   1.725       .  A
C995        C996   1.388       .  A
C996       H1000   1.083       .  S
C1001      S1007   1.716       .  A
C1001      C1006   1.386       .  A
C1001      C1002   1.410       .  A
C1002      C1003   1.410       .  A
C1002      H1013   1.084       .  S
C1003      C1012   1.381       .  A
C1003      C1004   1.388       .  A
C1004      S1010   1.694       .  A
C1004      C1005   1.395       .  A
C1005      C1006   1.395       .  A
C1005      H1014   1.085       .  S
C1006      C1009   1.364       .  A
S1007      C1008   1.728       .  A
C1008      C1009   1.383       .  A
C1009      H1015   1.084       .  S
S1010      C1011   1.722       .  A
C1011      C1012   1.392       .  A
C1012      H1016   1.083       .  S
C1017      S1023   1.713       .  A
C1017      C1022   1.386       .  A
C1017      C1018   1.403       .  A
C1018      C1019   1.405       .  A
C1018      H1029   1.083       .  S
C1019      C1028   1.371       .  A
C1019      C1020   1.386       .  A
C1020      S1026   1.703       .  A
C1020      C1021   1.398       .  A
C1021      C1022   1.400       .  A
C1021      H1030   1.083       .  S
C1022      C1025   1.365       .  A
S1023      C1024   1.724       .  A
C1024      C1025   1.387       .  A
C1025      H1031   1.083       .  S
S1026      C1027   1.723       .  A
C1027      C1028   1.391       .  A
C1028      H1032   1.082       .  S
C1033      S1039   1.711       .  A
C1033      C1038   1.386       .  A
C1033      C1034   1.407       .  A
C1034      C1035   1.407       .  A
C1034      H1045   1.082       .  S
C1035      C1044   1.378       .  A
C1035      C1036   1.387       .  A
C1036      S1042   1.695       .  A
C1036      C1037   1.395       .  A
C1037      C1038   1.395       .  A
C1037      H1046   1.083       .  S
C1038      C1041   1.365       .  A
S1039      C1040   1.728       .  A
C1040      C1041   1.382       .  A
C1041      H1047   1.083       .  S
S1042      C1043   1.721       .  A
C1043      C1044   1.390       .  A
C1044      H1048   1.083       .  S
C1049      S1055   1.709   1_655  A
C1049      C1054   1.387   1_655  A
C1049      C1050   1.402       .  A
C1050      C1051   1.403       .  A
C1050      H1061   1.083       .  S
C1051      C1060   1.370       .  A
C1051      C1052   1.386       .  A
C1052      S1058   1.707   1_545  A
C1052      C1053   1.402   1_655  A
C1053      C1054   1.403       .  A
C1053      H1062   1.083       .  S
C1054      C1057   1.371       .  A
S1055      C1056   1.724       .  A
C1056      C1057   1.389       .  A
C1057      H1063   1.083       .  S
S1058      C1059   1.728       .  A
C1059      C1060   1.389   1_565  A
C1060      H1064   1.083       .  S
C1065      S1071   1.707       .  A
C1065      C1070   1.385       .  A
C1065      C1066   1.405       .  A
C1066      C1067   1.405   1_556  A
C1066      H1077   1.083       .  S
C1067      C1076   1.375       .  A
C1067      C1068   1.387       .  A
C1068      S1074   1.701       .  A
C1068      C1069   1.399       .  A
C1069      C1070   1.399   1_554  A
C1069      H1078   1.083       .  S
C1070      C1073   1.369       .  A
S1071      C1072   1.730       .  A
C1072      C1073   1.389       .  A
C1073      H1079   1.080   1_455  S
S1074      C1075   1.722       .  A
C1075      C1076   1.388       .  A
C1076      H1080   1.083       .  S
C1081      S1087   1.713   1_565  A
C1081      C1086   1.386   1_565  A
C1081      C1082   1.406       .  A
C1082      C1083   1.407       .  A
C1082      H1093   1.083       .  S
C1083      C1092   1.374       .  A
C1083      C1084   1.385       .  A
C1084      S1090   1.705   1_554  A
C1084      C1085   1.400   1_565  A
C1085      C1086   1.401       .  A
C1085      H1094   1.083       .  S
C1086      C1089   1.369       .  A
S1087      C1088   1.726       .  A
C1088      C1089   1.387       .  A
C1089      H1095   1.083       .  S
S1090      C1091   1.726   1_556  A
C1091      C1092   1.392       .  A
C1092      H1096   1.083       .  S
