geometry optimzed in LAMMPS
_audit_creation_date              2020-11-30 
_audit_creation_method            'lammps2cif' 
_symmetry_space_group_name_H-M    'P1' 
_symmetry_Int_Tables_number       1 
_symmetry_cell_setting            triclinic 
loop_ 
_symmetry_equiv_pos_as_xyz 
  x,y,z 
_cell_length_a                    44.80199255 
_cell_length_b                    44.762507472337454 
_cell_length_c                    44.731276842209326 
_cell_angle_alpha                 89.99054685684565 
_cell_angle_beta                  89.97791953058953 
_cell_angle_gamma                 90.03521022884165 
loop_ 
_atom_site_label 
_atom_site_type_symbol 
_atom_site_fract_x 
_atom_site_fract_y 
_atom_site_fract_z 
_atom_site_charge 
N1          N  0.00458629  0.25853559  0.25730358    -0.03700
C2          C  0.01127013  0.22921235  0.26162574    -0.01100
C3          C  0.01218286  0.21409675  0.23471713    -0.24000
C4          C  0.00562056  0.23449780  0.21296241    -0.24200
C5          C  0.00107203  0.26148669  0.22723312    -0.01200
H6          H  0.01641765  0.19052698  0.23136972     0.12600
H7          H  0.00485944  0.23026909  0.18914815     0.12600
O8          O  0.99828383  0.40956961  0.44552685    -0.86700
O9          O  0.00368682  0.57894539  0.44522962    -0.86900
O10         O  0.95372820  0.49570917  0.40750261    -0.88500
O11         O  0.04887219  0.49491149  0.41073658    -0.87300
O12         O  0.08545556  0.49348912  0.44659708    -0.86900
O13         O  0.91570776  0.49778499  0.44186890    -0.88200
O14         O  0.00324356  0.54263827  0.40914956    -0.86700
O15         O  0.99868030  0.44564783  0.40921451    -0.86300
Zr16       Zr  0.00051716  0.49431261  0.43424420     2.84300
O17         O  0.03099393  0.52351018  0.46492743    -1.08300
O18         O  0.96805927  0.46574361  0.46329183    -1.09000
C19         C  0.99827901  0.41806411  0.41786688     1.06400
C20         C  0.00426561  0.57019701  0.41772028     1.06400
C21         C  0.92591670  0.49700434  0.41472710     1.09300
C22         C  0.07637480  0.49467418  0.41906758     1.07100
H23         H  0.95883372  0.53871172  0.44985429     0.32700
O24         O  0.97018031  0.52580866  0.46286802    -1.29200
H25         H  0.04225324  0.45031381  0.45232623     0.32400
O26         O  0.03000905  0.46334231  0.46441454    -1.30900
O27         O  0.00126669  0.58016316  0.54202853    -0.86700
O28         O  0.99441140  0.41049191  0.54236257    -0.88200
O29         O  0.91579422  0.54778558  0.49042513    -0.86800
O30         O  0.08576995  0.54155197  0.49718238    -0.86800
O31         O  0.08236242  0.44238700  0.50010707    -0.86500
O32         O  0.91239394  0.44843087  0.49181135    -0.86300
O33         O  0.94923228  0.49825064  0.57698512    -0.86700
O34         O  0.04390464  0.49382427  0.58069039    -0.86200
O35         O  0.91251065  0.49911281  0.54129644    -0.87200
O36         O  0.08178350  0.49221383  0.54615132    -0.86400
O37         O  0.95385074  0.58205775  0.49255438    -0.86800
O38         O  0.94874584  0.41229042  0.49172829    -0.86500
O39         O  0.04392595  0.40854670  0.49904090    -0.86100
O40         O  0.04945005  0.57762450  0.49446746    -0.86600
O41         O  0.99966823  0.54432974  0.57851892    -0.86900
O42         O  0.99512082  0.44676701  0.57849124    -0.88200
Zr43       Zr  0.00067574  0.55468442  0.49382601     2.83100
Zr44       Zr  0.99728648  0.43527048  0.49390078     2.83500
Zr45       Zr  0.93766120  0.49723089  0.49231812     2.84100
Zr46       Zr  0.06034420  0.49281160  0.49563427     2.83400
Zr47       Zr  0.99743156  0.49549599  0.55365012     2.84200
O48         O  0.02766361  0.46424271  0.52482636    -1.08800
O49         O  0.96824264  0.52644986  0.52336657    -1.08300
C50         C  0.00099340  0.57185685  0.56969432     1.06400
C51         C  0.99423867  0.41915815  0.56991669     1.09000
C52         C  0.92596922  0.57495481  0.49083214     1.06600
C53         C  0.07686300  0.56910771  0.49623414     1.06900
C54         C  0.07178743  0.41537661  0.50131218     1.06500
C55         C  0.92132448  0.42086951  0.49155252     1.06100
C56         C  0.92173420  0.49927713  0.56879737     1.06500
C57         C  0.07165560  0.49264222  0.57330245     1.06000
H58         H  0.95377955  0.45416025  0.53540669     0.32700
O59         O  0.96677117  0.46623266  0.52309535    -1.29900
H60         H  0.04207880  0.53635865  0.53742213     0.32700
O61         O  0.02979476  0.52416677  0.52456552    -1.31200
N62         N  0.01157852  0.73150530  0.72872935    -0.03700
C63         C  0.00878994  0.72801623  0.75878210    -0.01100
C64         C  0.01403071  0.75462076  0.77350828    -0.24000
C65         C  0.02013189  0.77542024  0.75201462    -0.24200
C66         C  0.01831097  0.76084024  0.72486924    -0.01200
H67         H  0.01341717  0.75844227  0.79739589     0.12600
H68         H  0.02414156  0.79898540  0.75567757     0.12600
N69         N  0.00112924  0.26088393  0.73024022    -0.03700
C70         C  0.99607330  0.23105894  0.72740850    -0.01100
C71         C  0.99921567  0.21677516  0.75457919    -0.24000
C72         C  0.00669120  0.23827082  0.77495936    -0.24200
C73         C  0.00769318  0.26506892  0.75964809    -0.01200
H74         H  0.99702783  0.19308964  0.75893472     0.12600
H75         H  0.01030927  0.23485193  0.79863847     0.12600
N76         N  0.00804022  0.73130755  0.26074877    -0.03700
C77         C  0.00299651  0.72906070  0.23079920    -0.01100
C78         C  0.00598952  0.75671207  0.21729647    -0.24000
C79         C  0.01293027  0.77665448  0.23933069    -0.24200
C80         C  0.01383583  0.76069459  0.26568893    -0.01200
H81         H  0.00328310  0.76188933  0.19382069     0.12600
H82         H  0.01543088  0.80056353  0.23667809     0.12600
O83         O  0.99832092  0.04321577  0.40867319    -0.86700
O84         O  0.99762035  0.04652436  0.57894271    -0.86900
O85         O  0.94973739  0.08100717  0.49446731    -0.88500
O86         O  0.04702682  0.07898708  0.49424686    -0.87300
O87         O  0.08276818  0.04233798  0.49299372    -0.86900
O88         O  0.91315875  0.04523369  0.49601639    -0.88200
O89         O  0.99905320  0.08128057  0.54130292    -0.86700
O90         O  0.99811156  0.07889878  0.44551237    -0.86300
Zr91       Zr  0.99800441  0.05520152  0.49404289     2.84300
O92         O  0.02840098  0.02554387  0.52436719    -1.08300
O93         O  0.96711067  0.02553370  0.46430348    -1.09000
C94         C  0.99844339  0.07064567  0.41791238     1.06400
C95         C  0.99821281  0.07375130  0.56909855     1.06400
C96         C  0.92203915  0.07276325  0.49534971     1.09300
C97         C  0.07443511  0.06997600  0.49371077     1.07100
H98         H  0.95557480  0.03921829  0.53792500     0.32700
O99         O  0.96789765  0.02648677  0.52562886    -1.29200
H100        H  0.04007944  0.03665401  0.45103971     0.32400
O101        O  0.02744074  0.02451877  0.46365818    -1.30900
O102        O  0.99801019  0.94850630  0.58172283    -0.86700
O103        O  0.99492968  0.94498461  0.41107440    -0.88200
O104        O  0.91405640  0.99469252  0.54431550    -0.86800
O105        O  0.08256068  0.99545584  0.54173738    -0.86800
O106        O  0.08117389  0.99268372  0.44579513    -0.86500
O107        O  0.91190536  0.99731844  0.44829237    -0.86300
O108        O  0.94865138  0.91101614  0.49683071    -0.86700
O109        O  0.04489152  0.90960546  0.49524941    -0.86200
O110        O  0.91262648  0.94742443  0.49673307    -0.87200
O111        O  0.08156697  0.94521211  0.49346918    -0.86400
O112        O  0.94995492  0.99430364  0.58089509    -0.86800
O113        O  0.94681142  0.99663914  0.41076739    -0.86500
O114        O  0.04524380  0.99232576  0.40925677    -0.86100
O115        O  0.04786879  0.99867846  0.57930756    -0.86600
O116        O  0.99543939  0.91283045  0.54500578    -0.86900
O117        O  0.99491067  0.91009803  0.44868530    -0.88200
Zr118      Zr  0.99843808  0.99669654  0.55602449     2.83100
Zr119      Zr  0.99645605  0.99458553  0.43394017     2.83500
Zr120      Zr  0.93754700  0.99620897  0.49581399     2.84100
Zr121      Zr  0.05721224  0.99420593  0.49406813     2.83400
Zr122      Zr  0.99689042  0.93574803  0.49608536     2.84200
O123        O  0.02665214  0.96433603  0.46427795    -1.08800
O124        O  0.96770477  0.96655599  0.52627276    -1.08300
C125        C  0.99636191  0.92113457  0.57258210     1.06400
C126        C  0.99443476  0.91779562  0.42093386     1.09000
C127        C  0.92255469  0.99378861  0.57181640     1.06600
C128        C  0.07503705  0.99775408  0.56946165     1.06900
C129        C  0.07270987  0.99224503  0.41827520     1.06500
C130        C  0.91957312  0.99754156  0.42051321     1.06100
C131        C  0.92122417  0.91981318  0.49681551     1.06500
C132        C  0.07259845  0.91773108  0.49418109     1.06000
H133        H  0.95360157  0.95283562  0.45347634     0.32700
O134        O  0.96653949  0.96530378  0.46540935    -1.29900
H135        H  0.04037037  0.95275490  0.53834110     0.32700
O136        O  0.02784678  0.96523249  0.52600368    -1.31200
N137        N  0.23260995  0.22900678  0.49683510    -0.03700
C138        C  0.22812674  0.25873241  0.50062326    -0.01100
C139        C  0.25422968  0.27429688  0.49511545    -0.24000
C140        C  0.27549989  0.25351741  0.48775016    -0.24200
C141        C  0.26171777  0.22593376  0.48910764    -0.01200
H142        H  0.25736336  0.29825342  0.49607236     0.12600
H143        H  0.29868118  0.25797727  0.48258323     0.12600
N144        N  0.76248122  0.23263599  0.50713045    -0.03700
C145        C  0.76626372  0.26219701  0.51320455    -0.01100
C146        C  0.73905972  0.27641790  0.51623055    -0.24000
C147        C  0.71761421  0.25524740  0.51172126    -0.24200
C148        C  0.73237229  0.22876068  0.50613327    -0.01200
H149        H  0.73524772  0.29996605  0.52019389     0.12600
H150        H  0.69371669  0.25878478  0.51216150     0.12600
N151        N  0.76250829  0.76106748  0.48164769    -0.03700
C152        C  0.73267855  0.76419010  0.48593552    -0.01100
C153        C  0.71837132  0.73706489  0.48247080    -0.24000
C154        C  0.74003231  0.71649686  0.47573861    -0.24200
C155        C  0.76691419  0.73166771  0.47550968    -0.01200
H156        H  0.69471146  0.73270929  0.48473922     0.12600
H157        H  0.73671041  0.69274436  0.47266611     0.12600
N158        N  0.23302798  0.75981884  0.50792250    -0.03700
C159        C  0.23031702  0.73101904  0.51736364    -0.01100
C160        C  0.25809776  0.71855233  0.52232878    -0.24000
C161        C  0.27870571  0.73998370  0.51529161    -0.24200
C162        C  0.26291866  0.76492726  0.50642927    -0.01200
H163        H  0.26290486  0.69583331  0.52905785     0.12600
H164        H  0.30272657  0.73768114  0.51647549     0.12600
N165        N  0.73479919  0.98746405  0.25700243    -0.03700
C166        C  0.76470534  0.99126204  0.26085265    -0.01100
C167        C  0.77994672  0.98593811  0.23454443    -0.24000
C168        C  0.75903710  0.97876086  0.21356610    -0.24200
C169        C  0.73160227  0.98000816  0.22764554    -0.01200
H170        H  0.80382748  0.98711139  0.23103576     0.12600
H171        H  0.76328807  0.97430052  0.19016467     0.12600
O172        O  0.44773067  0.08042248  0.49159432    -0.86700
O173        O  0.44923653  0.91006722  0.49435733    -0.86900
O174        O  0.41342737  0.99530234  0.44459191    -0.88500
O175        O  0.41389819  0.99573985  0.54262560    -0.87300
O176        O  0.45005755  0.99538994  0.57884164    -0.86900
O177        O  0.44945914  0.99679405  0.40818233    -0.88200
O178        O  0.41422405  0.94737470  0.49491371    -0.86700
O179        O  0.41324373  0.04253740  0.49250778    -0.86300
Zr180      Zr  0.43857395  0.99521857  0.49337352     2.84300
O181        O  0.46857822  0.96539151  0.52370082    -1.08300
O182        O  0.46811223  0.02569442  0.46299489    -1.09000
C183        C  0.42057633  0.07032152  0.49179959     1.06400
C184        C  0.42190638  0.91968408  0.49490032     1.06400
C185        C  0.42184506  0.99643947  0.41690151     1.09300
C186        C  0.42251413  0.99551991  0.57030515     1.07100
H187        H  0.45595924  0.95229517  0.45071210     0.32700
O188        O  0.46843504  0.96469991  0.46319808    -1.29200
H189        H  0.45496336  0.03863176  0.53523423     0.32400
O190        O  0.46789859  0.02649069  0.52297650    -1.30900
O191        O  0.54844546  0.91122520  0.49486840    -0.86700
O192        O  0.54695345  0.08155155  0.49353683    -0.88200
O193        O  0.49904143  0.94742763  0.40864986    -0.86800
O194        O  0.49656815  0.94880331  0.57844913    -0.86800
O195        O  0.49465376  0.04500888  0.57736025    -0.86500
O196        O  0.49732396  0.04339361  0.40815245    -0.86300
O197        O  0.58404676  0.99557338  0.44594057    -0.86700
O198        O  0.58279185  0.99649870  0.54209138    -0.86200
O199        O  0.54809355  0.99387410  0.40953139    -0.87200
O200        O  0.54688201  0.99742740  0.57852637    -0.86400
O201        O  0.50056580  0.91063985  0.44439713    -0.86800
O202        O  0.49559737  0.08093775  0.44301660    -0.86500
O203        O  0.49572826  0.08173294  0.54147902    -0.86100
O204        O  0.49704305  0.91129983  0.54349228    -0.86600
O205        O  0.58303576  0.94900957  0.49443782    -0.86900
O206        O  0.58213605  0.04439034  0.49458220    -0.88200
Zr207      Zr  0.49861291  0.93457738  0.49382033     2.83100
Zr208      Zr  0.49758616  0.05726009  0.49254694     2.83500
Zr209      Zr  0.49843227  0.99548413  0.43320553     2.84100
Zr210      Zr  0.49814456  0.99664013  0.55336290     2.83400
Zr211      Zr  0.55766201  0.99651081  0.49366545     2.84200
O212        O  0.52790795  0.02744393  0.52340031    -1.08800
O213        O  0.52838033  0.96546518  0.46366047    -1.08300
C214        C  0.57565730  0.92120703  0.49502692     1.06400
C215        C  0.57429823  0.07204508  0.49441964     1.09000
C216        C  0.50035138  0.91986359  0.41691391     1.06600
C217        C  0.49625960  0.92104227  0.57077171     1.06900
C218        C  0.49434867  0.07255534  0.56890372     1.06500
C219        C  0.49573931  0.07114315  0.41574027     1.06100
C220        C  0.57568124  0.99418533  0.41832924     1.06500
C221        C  0.57444160  0.99688805  0.56975089     1.06000
H222        H  0.54080688  0.03900192  0.45011683     0.32700
O223        O  0.52822846  0.02676866  0.46271807    -1.29900
H224        H  0.54077200  0.95373228  0.53672239     0.32700
O225        O  0.52825756  0.96576323  0.52394643    -1.31200
N226        N  0.26220866  0.99539339  0.73005595    -0.03700
C227        C  0.26527057  0.98794791  0.75939721    -0.01100
C228        C  0.23806972  0.98891095  0.77389966    -0.24000
C229        C  0.21743367  0.99749782  0.75311567    -0.24200
C230        C  0.23261284  0.00136521  0.72648840    -0.01200
H231        H  0.23384812  0.98464843  0.79734450     0.12600
H232        H  0.19369088  0.00000428  0.75684165     0.12600
N233        N  0.73422976  0.98581558  0.72990720    -0.03700
C234        C  0.76333921  0.97757721  0.72707146    -0.01100
C235        C  0.77684002  0.97469983  0.75466024    -0.24000
C236        C  0.75576075  0.98171989  0.77546052    -0.24200
C237        C  0.73001766  0.98854630  0.75993374    -0.01200
H238        H  0.79999477  0.96941310  0.75909460     0.12600
H239        H  0.75882723  0.98188147  0.79946436     0.12600
N240        N  0.26025306  0.00437092  0.25750600    -0.03700
C241        C  0.26517378  0.00829811  0.22774451    -0.01100
C242        C  0.23902909  0.00518584  0.21168207    -0.24000
C243        C  0.21704138  0.99920265  0.23193149    -0.24200
C244        C  0.23043527  0.99889826  0.25973853    -0.01200
H245        H  0.23642207  0.00640424  0.18765294     0.12600
H246        H  0.19364273  0.99573476  0.22698157     0.12600
O247        O  0.58313478  0.99411906  0.04241628    -0.86700
O248        O  0.41311578  0.99742903  0.04412152    -0.86900
O249        O  0.49869333  0.04521623  0.07819498    -0.88500
O250        O  0.49767767  0.94707012  0.07906403    -0.87300
O251        O  0.49650839  0.91061788  0.04311018    -0.86900
O252        O  0.49930119  0.08097664  0.04153818    -0.88200
O253        O  0.45054909  0.99616658  0.07908427    -0.86700
O254        O  0.54638675  0.99535999  0.07817148    -0.86300
Zr255      Zr  0.49824125  0.99585492  0.05390249     2.84300
O256        O  0.46707083  0.96583897  0.02460003    -1.08300
O257        O  0.52899249  0.02538277  0.02364150    -1.09000
C258        C  0.57392918  0.99433918  0.06989022     1.06400
C259        C  0.42284207  0.99726492  0.07142013     1.06400
C260        C  0.49910354  0.07277880  0.06926100     1.09300
C261        C  0.49697508  0.91937032  0.07067670     1.07100
H262        H  0.45572776  0.03880421  0.03666315     0.32700
O263        O  0.46770070  0.02594649  0.02414203    -1.29200
H264        H  0.54024243  0.95262301  0.03628965     0.32400
O265        O  0.52805497  0.96527550  0.02381320    -1.30900
O266        O  0.41198684  0.99437803  0.94528572    -0.86700
O267        O  0.58240140  0.99463380  0.94374701    -0.88200
O268        O  0.45094139  0.08033169  0.99364797    -0.86800
O269        O  0.44848006  0.91124997  0.99467974    -0.86800
O270        O  0.54432379  0.91032155  0.99384679    -0.86500
O271        O  0.54625076  0.07975647  0.99293675    -0.86300
O272        O  0.49486241  0.04273834  0.90879917    -0.86700
O273        O  0.49738521  0.94580576  0.90933226    -0.86200
O274        O  0.49533145  0.07923680  0.94471753    -0.87200
O275        O  0.49839900  0.90991982  0.94586786    -0.86400
O276        O  0.41331396  0.04559375  0.99345290    -0.86800
O277        O  0.58321342  0.04428058  0.99222780    -0.86500
O278        O  0.58199863  0.94502704  0.99233605    -0.86100
O279        O  0.41202318  0.94718902  0.99654553    -0.86600
O280        O  0.44913563  0.99387132  0.90998995    -0.86900
O281        O  0.54491194  0.99453487  0.90884442    -0.88200
Zr282      Zr  0.43656204  0.99595593  0.99446313     2.83100
Zr283      Zr  0.55886106  0.99484998  0.99324736     2.83500
Zr284      Zr  0.49835609  0.05497446  0.99349425     2.84100
Zr285      Zr  0.49685854  0.93543381  0.99435752     2.83400
Zr286      Zr  0.49720174  0.99452106  0.93413748     2.84200
O287        O  0.52769735  0.96458369  0.96389066    -1.08800
O288        O  0.46732292  0.02524617  0.96388661    -1.08300
C289        C  0.42149600  0.99367977  0.91790250     1.06400
C290        C  0.57265757  0.99477515  0.91648149     1.09000
C291        C  0.42320129  0.07281491  0.99354842     1.06600
C292        C  0.42099161  0.91971483  0.99601320     1.06900
C293        C  0.57204420  0.91780765  0.99283043     1.06500
C294        C  0.57385634  0.07171671  0.99237585     1.06100
C295        C  0.49418042  0.07035132  0.91724841     1.06500
C296        C  0.49822299  0.91830223  0.91816821     1.06000
H297        H  0.54035522  0.03742795  0.95019473     0.32700
O298        O  0.52831879  0.02494654  0.96306901    -1.29900
H299        H  0.45400802  0.95237710  0.95196542     0.32700
O300        O  0.46637876  0.96506173  0.96427331    -1.31200
N301        N  0.49834082  0.23320111  0.22939259    -0.03700
C302        C  0.49205200  0.22893303  0.25888723    -0.01100
C303        C  0.49467710  0.25536928  0.27461971    -0.24000
C304        C  0.50285555  0.27677736  0.25450113    -0.24200
C305        C  0.50481606  0.26284640  0.22702635    -0.01200
H306        H  0.49136332  0.25863466  0.29836820     0.12600
H307        H  0.50587475  0.30031361  0.25918020     0.12600
N308        N  0.50619551  0.75911984  0.22995282    -0.03700
C309        C  0.50103745  0.72939459  0.22650336    -0.01100
C310        C  0.50599544  0.71416537  0.25286854    -0.24000
C311        C  0.51451322  0.73497642  0.27347821    -0.24200
C312        C  0.51433273  0.76231512  0.25909169    -0.01200
H313        H  0.50398819  0.69034820  0.25657063     0.12600
H314        H  0.51909611  0.73078403  0.29686214     0.12600
N315        N  0.50915919  0.75948118  0.75730632    -0.03700
C316        C  0.51901680  0.73093574  0.76065731    -0.01100
C317        C  0.52249715  0.71726715  0.73318040    -0.24000
C318        C  0.51389865  0.73762749  0.71212405    -0.24200
C319        C  0.50569739  0.76319454  0.72733830    -0.01200
H320        H  0.52913097  0.69440813  0.72895023     0.12600
H321        H  0.51386647  0.73426760  0.68816028     0.12600
N322        N  0.50146186  0.23033047  0.75896355    -0.03700
C323        C  0.50826461  0.22648966  0.72961192    -0.01100
C324        C  0.51257206  0.25369600  0.71569800    -0.24000
C325        C  0.50809086  0.27518488  0.73700258    -0.24200
C326        C  0.50136196  0.26034991  0.76320021    -0.01200
H327        H  0.51767329  0.25747908  0.69234919     0.12600
H328        H  0.50992871  0.29909325  0.73388468     0.12600
O329        O  0.99864236  0.41166845  0.04313527    -0.86700
O330        O  0.99541779  0.58172297  0.04392503    -0.86900
O331        O  0.04619427  0.49350518  0.07811903    -0.88500
O332        O  0.94844398  0.49755912  0.07851675    -0.87300
O333        O  0.91212930  0.49684357  0.04240165    -0.86900
O334        O  0.08188489  0.49374593  0.04139854    -0.88200
O335        O  0.99590365  0.54423923  0.07886288    -0.86700
O336        O  0.99766171  0.44852360  0.07875469    -0.86300
Zr337      Zr  0.99710187  0.49627005  0.05378465     2.84300
O338        O  0.96682633  0.52641467  0.02398715    -1.08300
O339        O  0.02688366  0.46598753  0.02349132    -1.09000
C340        C  0.99862646  0.42093662  0.07060930     1.06400
C341        C  0.99517918  0.57202103  0.07122042     1.06400
C342        C  0.07366034  0.49258538  0.06907921     1.09300
C343        C  0.92087530  0.49752197  0.06993041     1.07100
H344        H  0.03964724  0.53924577  0.03710608     0.32700
O345        O  0.02707131  0.52723114  0.02434021    -1.29200
H346        H  0.95423535  0.45336544  0.03665453     0.32400
O347        O  0.96668640  0.46571162  0.02404886    -1.30900
O348        O  0.99764502  0.58231536  0.94561897    -0.86700
O349        O  0.99732030  0.41215351  0.94389441    -0.88200
O350        O  0.08090291  0.54465116  0.99487047    -0.86800
O351        O  0.91181555  0.54390876  0.99546366    -0.86800
O352        O  0.91247408  0.44785678  0.99324447    -0.86500
O353        O  0.08155067  0.44926887  0.99073129    -0.86300
O354        O  0.04427226  0.49689435  0.90861848    -0.86700
O355        O  0.94739070  0.49763070  0.90897690    -0.86200
O356        O  0.08074103  0.49795610  0.94448311    -0.87200
O357        O  0.91132879  0.49631991  0.94527597    -0.86400
O358        O  0.04577048  0.58194801  0.99506553    -0.86800
O359        O  0.04637028  0.41201161  0.99204544    -0.86500
O360        O  0.94764923  0.41066561  0.99361113    -0.86100
O361        O  0.94704075  0.58114446  0.99663080    -0.86600
O362        O  0.99847274  0.54528837  0.91017491    -0.86900
O363        O  0.99656413  0.44972773  0.90899883    -0.88200
Zr364      Zr  0.99652710  0.55780021  0.99457509     2.83100
Zr365      Zr  0.99672417  0.43540199  0.99357065     2.83500
Zr366      Zr  0.05626446  0.49682054  0.99335237     2.84100
Zr367      Zr  0.93679535  0.49618457  0.99380103     2.83400
Zr368      Zr  0.99600099  0.49724765  0.93414266     2.84200
O369        O  0.96636434  0.46586005  0.96350495    -1.08800
O370        O  0.02633456  0.52764002  0.96383037    -1.08300
C371        C  0.99885236  0.57287190  0.91828232     1.06400
C372        C  0.99738780  0.42201103  0.91664583     1.09000
C373        C  0.07303456  0.57230580  0.99550940     1.06600
C374        C  0.91974339  0.57155624  0.99671169     1.06900
C375        C  0.92028972  0.42012571  0.99337570     1.06500
C376        C  0.07367585  0.42157972  0.99069353     1.06100
C377        C  0.07190936  0.49736233  0.91695837     1.06500
C378        C  0.91981369  0.49700453  0.91761807     1.06000
H379        H  0.03869076  0.45455535  0.95063069     0.32700
O380        O  0.02620783  0.46655455  0.96347467    -1.29900
H381        H  0.95351656  0.54011707  0.95170192     0.32700
O382        O  0.96607093  0.52770614  0.96408361    -1.31200
N383        N  0.76256008  0.49907732  0.22961114    -0.03700
C384        C  0.76759521  0.50439909  0.25901262    -0.01100
C385        C  0.74146234  0.50188324  0.27517800    -0.24000
C386        C  0.71950688  0.49458235  0.25512209    -0.24200
C387        C  0.73293250  0.49310204  0.22730750    -0.01200
H388        H  0.73884830  0.50425873  0.29911533     0.12600
H389        H  0.69610051  0.49137180  0.26019049     0.12600
N390        N  0.23434189  0.49020800  0.22833967    -0.03700
C391        C  0.26407283  0.49513590  0.22462744    -0.01100
C392        C  0.27889254  0.49406743  0.25168011    -0.24000
C393        C  0.25787115  0.48827178  0.27296216    -0.24200
C394        C  0.23085068  0.48609984  0.25827080    -0.01200
H395        H  0.30262132  0.49669371  0.25542774     0.12600
H396        H  0.26171407  0.48663324  0.29679605     0.12600
N397        N  0.23270042  0.48708927  0.75875524    -0.03700
C398        C  0.26248999  0.49145589  0.76242746    -0.01100
C399        C  0.27772575  0.48621071  0.73610853    -0.24000
C400        C  0.25680682  0.47844343  0.71526854    -0.24200
C401        C  0.22949023  0.47942055  0.72955265    -0.01200
H402        H  0.30157914  0.48774399  0.73255660     0.12600
H403        H  0.26090832  0.47391757  0.69185590     0.12600
N404        N  0.76140747  0.49618300  0.75588800    -0.03700
C405        C  0.76492784  0.50385455  0.72665289    -0.01100
C406        C  0.73785614  0.50338861  0.71186200    -0.24000
C407        C  0.71685897  0.49496833  0.73234327    -0.24200
C408        C  0.73169786  0.49070459  0.75905965    -0.01200
H409        H  0.73389165  0.50815073  0.68847201     0.12600
H410        H  0.69307567  0.49319993  0.72846144     0.12600
N411        N  0.26265693  0.26171713  0.99882941    -0.03700
C412        C  0.23301566  0.26557539  0.00464835    -0.01100
C413        C  0.21891103  0.23833147  0.00811924    -0.24000
C414        C  0.24010528  0.21687679  0.00417334    -0.24200
C415        C  0.26662682  0.23153163  0.99841945    -0.01200
H416        H  0.19541484  0.23444093  0.01221493     0.12600
H417        H  0.23656666  0.19297654  0.00529188     0.12600
O418        O  0.49916213  0.44783272  0.07791053    -0.86700
O419        O  0.49850739  0.44796309  0.90793402    -0.86900
O420        O  0.44900000  0.41313140  0.99207362    -0.88500
O421        O  0.54589425  0.41278623  0.99125421    -0.87300
O422        O  0.58234462  0.44875928  0.99166138    -0.86900
O423        O  0.41290445  0.44936422  0.99201115    -0.88200
O424        O  0.49936464  0.41290350  0.94533591    -0.86700
O425        O  0.49762600  0.41243697  0.04090683    -0.86300
Zr426      Zr  0.49768540  0.43772302  0.99305020     2.84300
O427        O  0.52784473  0.46757574  0.96273419    -1.08300
O428        O  0.46787482  0.46742767  0.02360528    -1.09000
C429        C  0.49860688  0.42048424  0.06857460     1.06400
C430        C  0.49945571  0.42069761  0.91763561     1.06400
C431        C  0.42145916  0.42175588  0.99170543     1.09300
C432        C  0.57345044  0.42127447  0.99075274     1.07100
H433        H  0.45517348  0.45494484  0.95002014     0.32700
O434        O  0.46768698  0.46742191  0.96239283    -1.29200
H435        H  0.54102757  0.45428911  0.03553136     0.32400
O436        O  0.52845751  0.46695921  0.02344812    -1.30900
O437        O  0.49890009  0.54620967  0.90777174    -0.86700
O438        O  0.49732590  0.54556384  0.07862927    -0.88200
O439        O  0.41346086  0.49839478  0.94541067    -0.86800
O440        O  0.58260724  0.49717930  0.94495265    -0.86800
O441        O  0.58300449  0.49708844  0.04099505    -0.86500
O442        O  0.41418470  0.49472508  0.04117545    -0.86300
O443        O  0.44985053  0.58295777  0.99335255    -0.86700
O444        O  0.54623220  0.58273536  0.99438258    -0.86200
O445        O  0.41363144  0.54681815  0.99381948    -0.87200
O446        O  0.58234483  0.54651133  0.99477958    -0.86400
O447        O  0.44851002  0.49833029  0.90800264    -0.86800
O448        O  0.44974882  0.49390471  0.07807823    -0.86500
O449        O  0.54781347  0.49699161  0.07821892    -0.86100
O450        O  0.54721332  0.49604444  0.90790490    -0.86600
O451        O  0.49838113  0.58157089  0.94490263    -0.86900
O452        O  0.49809146  0.58089423  0.04147521    -0.88200
Zr453      Zr  0.49794404  0.49732296  0.93190278     2.83100
Zr454      Zr  0.49855658  0.49694442  0.05401581     2.83500
Zr455      Zr  0.43828293  0.49776171  0.99310084     2.84100
Zr456      Zr  0.55794588  0.49755042  0.99306170     2.83400
Zr457      Zr  0.49804720  0.55717400  0.99310129     2.84200
O458        O  0.52828942  0.52751455  0.02365118    -1.08800
O459        O  0.46793225  0.52770354  0.96234300    -1.08300
C460        C  0.49894799  0.57351251  0.91723954     1.06400
C461        C  0.49750486  0.57285104  0.06911865     1.09000
C462        C  0.42123098  0.49853078  0.91770050     1.06600
C463        C  0.57457958  0.49621347  0.91728365     1.06900
C464        C  0.57516374  0.49696686  0.06873613     1.06500
C465        C  0.42244766  0.49318712  0.06870856     1.06100
C466        C  0.42223516  0.57446806  0.99381470     1.06500
C467        C  0.57377294  0.57412492  0.99506571     1.06000
H468        H  0.45556029  0.53968241  0.03632990     0.32700
O469        O  0.46815932  0.52736522  0.02388713    -1.29900
H470        H  0.54084906  0.54007784  0.95021338     0.32700
O471        O  0.52819916  0.52752888  0.96241279    -1.31200
N472        N  0.73369608  0.73268392  0.00489677    -0.03700
C473        C  0.72977994  0.76255499  0.00169815    -0.01100
C474        C  0.75645376  0.77761787  0.00538516    -0.24000
C475        C  0.77767112  0.75641344  0.01111992    -0.24200
C476        C  0.76322125  0.72915261  0.01063071    -0.01200
H477        H  0.76006755  0.80148265  0.00388044     0.12600
H478        H  0.80132480  0.76031089  0.01414915     0.12600
N479        N  0.26147628  0.73226725  0.01052409    -0.03700
C480        C  0.26447118  0.76138883  0.01878598    -0.01100
C481        C  0.23688100  0.77418394  0.02405969    -0.24000
C482        C  0.21602418  0.75260202  0.01850050    -0.24200
C483        C  0.23155337  0.72734038  0.01020573    -0.01200
H484        H  0.23235715  0.79715801  0.03008667     0.12600
H485        H  0.19204993  0.75498953  0.02031693     0.12600
N486        N  0.73061207  0.26137303  0.97433510    -0.03700
C487        C  0.76065071  0.26436056  0.97762808    -0.01100
C488        C  0.77487982  0.23789304  0.97062894    -0.24000
C489        C  0.75309644  0.21784469  0.96298332    -0.24200
C490        C  0.72617355  0.23257893  0.96579286    -0.01200
H491        H  0.79863668  0.23357310  0.97129123     0.12600
H492        H  0.75641493  0.19446838  0.95778288     0.12600
C493        C  0.64845486  0.38184643  0.99200315    -0.11000
C494        C  0.64057516  0.35259785  0.98374165     0.06100
C495        C  0.61046446  0.34611927  0.97780009    -0.09800
C496        C  0.58867368  0.36831988  0.98038737    -0.11400
C497        C  0.59653985  0.39762272  0.98865037    -0.01200
C498        C  0.62671548  0.40413697  0.99432320    -0.10300
C499        C  0.66368397  0.32890211  0.98150936     0.06100
H500        H  0.60369729  0.32373863  0.97157643     0.08100
H501        H  0.56567576  0.36254440  0.97565300     0.11500
H502        H  0.63356192  0.42645370  0.00068475     0.11800
H503        H  0.67153663  0.38756339  0.99635610     0.08100
C504        C  0.66367678  0.30880662  0.95738331    -0.11000
C505        C  0.68559690  0.28669444  0.95520451    -0.10300
C506        C  0.70795156  0.28412148  0.97709081    -0.01200
C507        C  0.70781264  0.30396183  0.00136816    -0.11400
C508        C  0.68593831  0.32618659  0.00352217    -0.09800
H509        H  0.64701564  0.31052111  0.93993013     0.08100
H510        H  0.68541060  0.27178978  0.93614750     0.11800
H511        H  0.72446921  0.30206901  0.01877614     0.11500
H512        H  0.68618775  0.34104837  0.02261805     0.08100
C513        C  0.30529923  0.66631925  0.98143399    -0.11000
C514        C  0.33029602  0.66643218  0.00044167     0.06100
C515        C  0.33247878  0.68880064  0.02234393    -0.09800
C516        C  0.30999327  0.71031602  0.02548577    -0.11400
C517        C  0.28501508  0.71039665  0.00644414    -0.01200
C518        C  0.28306065  0.68823918  0.98419483    -0.10300
C519        C  0.35379362  0.64301327  0.99790721     0.06100
H520        H  0.35130093  0.68919305  0.03752336     0.08100
H521        H  0.31186550  0.72664520  0.04322037     0.11500
H522        H  0.26442819  0.68793292  0.96882953     0.11800
H523        H  0.30316689  0.64943196  0.96422811     0.08100
C524        C  0.34613235  0.61259847  0.99862181    -0.11000
C525        C  0.36825417  0.59047551  0.99724243    -0.10300
C526        C  0.39866583  0.59816397  0.99476907    -0.01200
C527        C  0.40622831  0.62874035  0.99372630    -0.11400
C528        C  0.38407885  0.65085755  0.99546327    -0.09800
H529        H  0.32298822  0.60594468  0.00082169     0.08100
H530        H  0.36146432  0.56728468  0.99831023     0.11800
H531        H  0.42930952  0.63565314  0.99174799     0.11500
H532        H  0.39057868  0.67415900  0.99473247     0.08100
C533        C  0.61262656  0.64995405  0.99313802    -0.11000
C534        C  0.64256552  0.64203281  0.99813990     0.06100
C535        C  0.64968800  0.61174401  0.00209758    -0.09800
C536        C  0.62743127  0.58980960  0.00098256    -0.11400
C537        C  0.59737270  0.59761725  0.99618747    -0.01200
C538        C  0.59025011  0.62804279  0.99239757    -0.10300
C539        C  0.66630265  0.66525190  0.99959934     0.06100
H540        H  0.67260617  0.60499443  0.00576745     0.08100
H541        H  0.63382983  0.56668820  0.00403783     0.11500
H542        H  0.56739306  0.63496216  0.98868958     0.11800
H543        H  0.60648477  0.67317631  0.99025573     0.08100
C544        C  0.66834342  0.68755999  0.97756854    -0.11000
C545        C  0.69068808  0.70941537  0.97907319    -0.10300
C546        C  0.71124745  0.70960349  0.00277872    -0.01200
C547        C  0.70931398  0.68724379  0.02471907    -0.11400
C548        C  0.68713587  0.66524041  0.02310514    -0.09800
H549        H  0.65283736  0.68786821  0.95900484     0.08100
H550        H  0.69204316  0.72613601  0.96164502     0.11800
H551        H  0.72472037  0.68712842  0.04335697     0.11500
H552        H  0.68591756  0.64847629  0.04052408     0.08100
C553        C  0.33095340  0.30424850  0.97355567    -0.11000
C554        C  0.33002291  0.32944780  0.99232750     0.06100
C555        C  0.30650890  0.33199048  0.01295011    -0.09800
C556        C  0.28460564  0.30981726  0.01498856    -0.11400
C557        C  0.28526271  0.28473332  0.99610873    -0.01200
C558        C  0.30861905  0.28230445  0.97519339    -0.10300
C559        C  0.35345787  0.35302497  0.99077056     0.06100
H560        H  0.30542479  0.35088500  0.02802760     0.08100
H561        H  0.26734545  0.31205319  0.03175647     0.11500
H562        H  0.30951905  0.26353926  0.95998480     0.11800
H563        H  0.34867690  0.30179046  0.95727218     0.08100
C564        C  0.38385267  0.34541655  0.98955396    -0.11000
C565        C  0.40585490  0.36767577  0.98969826    -0.10300
C566        C  0.39800690  0.39813658  0.99084704    -0.01200
C567        C  0.36752302  0.40568863  0.99140448    -0.11400
C568        C  0.34556574  0.38341456  0.99147778    -0.09800
H569        H  0.39063329  0.32220062  0.98922913     0.08100
H570        H  0.42905717  0.36093731  0.98916519     0.11800
H571        H  0.36055117  0.42883724  0.99207663     0.11500
H572        H  0.32230688  0.38996381  0.99205768     0.08100
C573        C  0.61675913  0.48572932  0.84438669    -0.11000
C574        C  0.64652415  0.48931427  0.85379228     0.06100
C575        C  0.65226839  0.49600184  0.88384167    -0.09800
C576        C  0.62884627  0.49868575  0.90418550    -0.11400
C577        C  0.59902699  0.49480455  0.89498078    -0.01200
C578        C  0.59322324  0.48852992  0.86476182    -0.10300
C579        C  0.67146071  0.48676755  0.83218400     0.06100
H580        H  0.67495692  0.49873552  0.89173053     0.08100
H581        H  0.63423012  0.50362763  0.92725819     0.11500
H582        H  0.57056975  0.48542812  0.85691519     0.11800
H583        H  0.61166418  0.48106211  0.82118772     0.08100
C584        C  0.67121251  0.46431201  0.81028791    -0.11000
C585        C  0.69284968  0.46398594  0.78788117    -0.10300
C586        C  0.71518076  0.48596572  0.78707259    -0.01200
C587        C  0.71667959  0.50725920  0.80994927    -0.11400
C588        C  0.69496056  0.50765548  0.83238922    -0.09800
H589        H  0.65371352  0.44761244  0.80992937     0.08100
H590        H  0.69121439  0.44756045  0.77016491     0.11800
H591        H  0.73325599  0.52486802  0.80922709     0.11500
H592        H  0.69556643  0.52535215  0.84887470     0.08100
C593        C  0.30025185  0.47960203  0.83598944    -0.11000
C594        C  0.32221033  0.50213308  0.83493580     0.06100
C595        C  0.32052765  0.52402197  0.81253023    -0.09800
C596        C  0.29885741  0.52204007  0.79029475    -0.11400
C597        C  0.27834887  0.49837405  0.79026153    -0.01200
C598        C  0.27838024  0.47779855  0.81379926    -0.10300
C599        C  0.34770404  0.50174402  0.85602565     0.06100
H600        H  0.33665913  0.54201957  0.81154061     0.08100
H601        H  0.29916890  0.53798618  0.77206970     0.11500
H602        H  0.26306090  0.45906534  0.81371322     0.11800
H603        H  0.30107835  0.46227555  0.85285381     0.08100
C604        C  0.34323622  0.49368047  0.88595160    -0.11000
C605        C  0.36724649  0.49225747  0.90562438    -0.10300
C606        C  0.39639999  0.49899147  0.89593306    -0.01200
C607        C  0.40099778  0.50696343  0.86594646    -0.11400
C608        C  0.37684565  0.50838011  0.84617413    -0.09800
H609        H  0.32108572  0.48870729  0.89427879     0.08100
H610        H  0.36284789  0.48588663  0.92856667     0.11800
H611        H  0.42314012  0.51235079  0.85785048     0.11500
H612        H  0.38106002  0.51419258  0.82305793     0.08100
C613        C  0.30127313  0.47396101  0.15260616    -0.11000
C614        C  0.32511998  0.49447323  0.15247060     0.06100
C615        C  0.32501433  0.51816171  0.17298665    -0.09800
C616        C  0.30299997  0.51992205  0.19477145    -0.11400
C617        C  0.28053683  0.49818552  0.19639229    -0.01200
C618        C  0.27904639  0.47582319  0.17452006    -0.10300
C619        C  0.35055189  0.49112892  0.13168438     0.06100
H620        H  0.34251506  0.53486095  0.17280547     0.08100
H621        H  0.30450204  0.53730636  0.21155988     0.11500
H622        H  0.26215631  0.45854917  0.17577884     0.11800
H623        H  0.30074586  0.45552083  0.13695661     0.08100
C624        C  0.37979754  0.49746674  0.14132255    -0.11000
C625        C  0.40349013  0.49729344  0.12110840    -0.10300
C626        C  0.39834031  0.49064132  0.09093066    -0.01200
C627        C  0.36940097  0.48262197  0.08168897    -0.11400
C628        C  0.34574092  0.48286978  0.10186958    -0.09800
H629        H  0.38428646  0.50306482  0.16443866     0.08100
H630        H  0.42558955  0.50323802  0.12892323     0.11800
H631        H  0.36483762  0.47680912  0.05863344     0.11500
H632        H  0.32351974  0.47778186  0.09383602     0.08100
C633        C  0.61769453  0.49128550  0.14203100    -0.11000
C634        C  0.64749766  0.49291690  0.13219603     0.06100
C635        C  0.65323668  0.49700454  0.10168450    -0.09800
C636        C  0.62970587  0.49862509  0.08129408    -0.11400
C637        C  0.59980860  0.49643112  0.09094426    -0.01200
C638        C  0.59408253  0.49307712  0.12164363    -0.10300
C639        C  0.67239484  0.49019046  0.15383808     0.06100
H640        H  0.67595938  0.49829075  0.09350815     0.08100
H641        H  0.63506413  0.50136329  0.05784725     0.11500
H642        H  0.57141526  0.49147231  0.12990123     0.11800
H643        H  0.61265991  0.48868925  0.16557280     0.08100
C644        C  0.69669240  0.51012853  0.15316691    -0.11000
C645        C  0.71813142  0.50965803  0.17594939    -0.10300
C646        C  0.71558522  0.48914988  0.19953951    -0.01200
C647        C  0.69252366  0.46793909  0.19900510    -0.11400
C648        C  0.67117712  0.46840441  0.17635807    -0.09800
H649        H  0.69815172  0.52715154  0.13602440     0.08100
H650        H  0.73541909  0.52657195  0.17620142     0.11800
H651        H  0.69022419  0.45186421  0.21696864     0.11500
H652        H  0.65311345  0.45232417  0.17697915     0.08100
C653        C  0.82148565  0.67399631  0.03320545    -0.11000
C654        C  0.82298195  0.65580303  0.00774171     0.06100
C655        C  0.80152201  0.65917058  0.98505459    -0.09800
C656        C  0.77998469  0.68168510  0.98707249    -0.11400
C657        C  0.77973184  0.70088809  0.01182133    -0.01200
C658        C  0.80007447  0.69642328  0.03516689    -0.10300
C659        C  0.84780554  0.63444273  0.00435131     0.06100
H660        H  0.80241518  0.64545303  0.96512999     0.08100
H661        H  0.76489362  0.68536516  0.96851869     0.11500
H662        H  0.80029609  0.71131526  0.05425655     0.11800
H663        H  0.83750972  0.67146006  0.05115177     0.08100
C664        C  0.87731945  0.64349094  0.01002292    -0.11000
C665        C  0.90087925  0.62328934  0.00705051    -0.10300
C666        C  0.89526710  0.59361106  0.99859874    -0.01200
C667        C  0.86565467  0.58472171  0.99278991    -0.11400
C668        C  0.84220045  0.60498764  0.99547972    -0.09800
H669        H  0.88215108  0.66627753  0.01658582     0.08100
H670        H  0.92337182  0.63079283  0.01177993     0.11800
H671        H  0.86051057  0.56202361  0.98617868     0.11500
H672        H  0.81961020  0.59753063  0.99112625     0.08100
C673        C  0.84194135  0.38785723  0.99191766    -0.11000
C674        C  0.84720866  0.35706561  0.99367118     0.06100
C675        C  0.87692265  0.34687491  0.99544371    -0.09800
C676        C  0.90082054  0.36712671  0.99525966    -0.11400
C677        C  0.89547718  0.39801276  0.99341723    -0.01200
C678        C  0.86568532  0.40802865  0.99182932    -0.10300
C679        C  0.82183574  0.33564535  0.99287625     0.06100
H680        H  0.88171439  0.32318652  0.99642460     0.08100
H681        H  0.92339839  0.35859627  0.99650936     0.11500
H682        H  0.86053154  0.43161744  0.99046835     0.11800
H683        H  0.81936395  0.39641369  0.99084702     0.08100
C684        C  0.82200080  0.31025354  0.01126731    -0.11000
C685        C  0.80008925  0.28833153  0.00807452    -0.10300
C686        C  0.77755022  0.29128674  0.98646744    -0.01200
C687        C  0.77596024  0.31757740  0.96954050    -0.11400
C688        C  0.79795288  0.33964166  0.97274333    -0.09800
H689        H  0.83964803  0.30687357  0.02745414     0.08100
H690        H  0.80168572  0.26815399  0.02135998     0.11800
H691        H  0.75907096  0.32007126  0.95240646     0.11500
H692        H  0.79724887  0.35896977  0.95820837     0.08100
C693        C  0.14975665  0.60448024  0.00887677    -0.11000
C694        C  0.14653589  0.63383720  0.99847647     0.06100
C695        C  0.11843704  0.64330295  0.98797512    -0.09800
C696        C  0.09420273  0.62360965  0.98743525    -0.11400
C697        C  0.09770669  0.59408482  0.99727631    -0.01200
C698        C  0.12565062  0.58484669  0.00826944    -0.10300
C699        C  0.17219973  0.65472576  0.99911260     0.06100
H700        H  0.11510493  0.66603546  0.98041631     0.08100
H701        H  0.07293682  0.63131364  0.97890183     0.11500
H702        H  0.12897941  0.56228059  0.01635903     0.11800
H703        H  0.17106453  0.59648608  0.01701176     0.08100
C704        C  0.19185379  0.65523746  0.02367961    -0.11000
C705        C  0.21371342  0.67740048  0.02592224    -0.10300
C706        C  0.21610753  0.69925786  0.00370561    -0.01200
C707        C  0.19786898  0.69773293  0.97833445    -0.11400
C708        C  0.17626287  0.67546459  0.97589426    -0.09800
H709        H  0.18916751  0.63970047  0.04203396     0.08100
H710        H  0.22720562  0.67882074  0.04596494     0.11800
H711        H  0.19925068  0.71481525  0.96122500     0.11500
H712        H  0.16196540  0.67518613  0.95638451     0.08100
C713        C  0.11684595  0.34921830  0.99765646    -0.11000
C714        C  0.14634284  0.35881677  0.99250512     0.06100
C715        C  0.15137280  0.38857695  0.98414357    -0.09800
C716        C  0.12758427  0.40870631  0.98264631    -0.11400
C717        C  0.09823143  0.39945355  0.98935338    -0.01200
C718        C  0.09304942  0.36929475  0.99608522    -0.10300
C719        C  0.17163509  0.33800346  0.99743025     0.06100
H720        H  0.17380380  0.39657514  0.97994733     0.08100
H721        H  0.13234734  0.43172601  0.97690081     0.11500
H722        H  0.07075367  0.36136355  0.00105923     0.11800
H723        H  0.11221924  0.32618007  0.00342772     0.08100
C724        C  0.17097351  0.31870424  0.02211777    -0.11000
C725        C  0.19276239  0.29689802  0.02566570    -0.10300
C726        C  0.21576993  0.29373478  0.00462579    -0.01200
C727        C  0.21783766  0.31427844  0.98098098    -0.11400
C728        C  0.19593645  0.33643641  0.97748536    -0.09800
H729        H  0.15307812  0.31994904  0.03835422     0.08100
H730        H  0.19079005  0.28139813  0.04416829     0.11800
H731        H  0.23513192  0.31198817  0.96422174     0.11500
H732        H  0.19708837  0.35118942  0.95833479     0.08100
C733        C  0.84465984  0.48804772  0.87836080    -0.11000
C734        C  0.85137592  0.49674043  0.84886017     0.06100
C735        C  0.88079036  0.50573986  0.84234596    -0.09800
C736        C  0.90288017  0.50579632  0.86455221    -0.11400
C737        C  0.89618570  0.49709985  0.89404111    -0.01200
C738        C  0.86670836  0.48836633  0.90066288    -0.10300
C739        C  0.82794202  0.49647838  0.82495629     0.06100
H740        H  0.88692582  0.51228793  0.81986785     0.08100
H741        H  0.92525009  0.51278325  0.85859208     0.11500
H742        H  0.86069384  0.48148196  0.92308090     0.11800
H743        H  0.82221670  0.48133258  0.88433285     0.08100
C744        C  0.80651913  0.47346098  0.82339757    -0.11000
C745        C  0.78488042  0.47318679  0.80068510    -0.10300
C746        C  0.78401439  0.49598400  0.77906351    -0.01200
C747        C  0.80527152  0.51900092  0.78069351    -0.11400
C748        C  0.82694680  0.51923425  0.80325330    -0.09800
H749        H  0.80679177  0.45535537  0.83944426     0.08100
H750        H  0.76896086  0.45500804  0.79982033     0.11800
H751        H  0.80479694  0.53715758  0.76472644     0.11500
H752        H  0.84266341  0.53759560  0.80398463     0.08100
C753        C  0.10955968  0.49049716  0.84087888    -0.11000
C754        C  0.13979753  0.49492908  0.84805935     0.06100
C755        C  0.14747459  0.50037358  0.87804093    -0.09800
C756        C  0.12552375  0.50119696  0.90032466    -0.11400
C757        C  0.09523222  0.49684965  0.89318628    -0.01200
C758        C  0.08754859  0.49156878  0.86312136    -0.10300
C759        C  0.16334847  0.49343807  0.82453026     0.06100
H760        H  0.17059525  0.50348624  0.88436953     0.08100
H761        H  0.13235385  0.50524323  0.92318707     0.11500
H762        H  0.06450447  0.48802016  0.85673986     0.11800
H763        H  0.10288148  0.48647299  0.81796618     0.08100
C764        C  0.16271515  0.47093848  0.80261868    -0.11000
C765        C  0.18551536  0.46878842  0.78130643    -0.10300
C766        C  0.20927118  0.48937582  0.78099784    -0.01200
C767        C  0.20957703  0.51222811  0.80252821    -0.11400
C768        C  0.18701754  0.51411140  0.82415812    -0.09800
H769        H  0.14498911  0.45448124  0.80245111     0.08100
H770        H  0.18481722  0.45069028  0.76528787     0.11800
H771        H  0.22711119  0.52884960  0.80246054     0.11500
H772        H  0.18789586  0.53199293  0.84043299     0.08100
C773        C  0.14979710  0.49619285  0.10685763    -0.11000
C774        C  0.14330442  0.48713275  0.13631110     0.06100
C775        C  0.11376262  0.47860325  0.14301619    -0.09800
C776        C  0.09124406  0.48014591  0.12124306    -0.11400
C777        C  0.09765060  0.49006006  0.09208418    -0.01200
C778        C  0.12735005  0.49756800  0.08507602    -0.10300
C779        C  0.16699976  0.48757933  0.16003542     0.06100
H780        H  0.10777009  0.47157985  0.16538044     0.08100
H781        H  0.06873408  0.47372767  0.12732462     0.11500
H782        H  0.13322563  0.50505059  0.06280970     0.11800
H783        H  0.17232460  0.50227914  0.10055775     0.08100
C784        C  0.16773002  0.46589303  0.18287664    -0.11000
C785        C  0.18965875  0.46684908  0.20528739    -0.10300
C786        C  0.21149378  0.48940887  0.20542404    -0.01200
C787        C  0.21086819  0.51102308  0.18267183    -0.11400
C788        C  0.18892776  0.51017297  0.16034384    -0.09800
H789        H  0.15158243  0.44790176  0.18324681     0.08100
H790        H  0.18986537  0.44967215  0.22231990     0.11800
H791        H  0.22715675  0.52888839  0.18244151     0.11500
H792        H  0.18883836  0.52764395  0.14361444     0.08100
C793        C  0.88239326  0.50627195  0.14514486    -0.11000
C794        C  0.85295749  0.49774311  0.13837197     0.06100
C795        C  0.84601237  0.48934630  0.10893408    -0.09800
C796        C  0.86794414  0.48966517  0.08668147    -0.11400
C797        C  0.89747390  0.49795656  0.09344626    -0.01200
C798        C  0.90443908  0.50625439  0.12296780    -0.10300
C799        C  0.82942790  0.49808864  0.16178104     0.06100
H800        H  0.82345585  0.48296920  0.10301198     0.08100
H801        H  0.86180035  0.48309101  0.06421242     0.11500
H802        H  0.92691525  0.51288135  0.12893118     0.11800
H803        H  0.88842889  0.51265316  0.16770162     0.08100
C804        C  0.82707448  0.52235610  0.18157056    -0.11000
C805        C  0.80482845  0.52285048  0.20348301    -0.10300
C806        C  0.78456371  0.49907976  0.20612050    -0.01200
C807        C  0.78669040  0.47491003  0.18627797    -0.11400
C808        C  0.80892685  0.47439708  0.16429712    -0.09800
H809        H  0.84224509  0.54112235  0.17985705     0.08100
H810        H  0.80332548  0.54182722  0.21840832     0.11800
H811        H  0.77146616  0.45621845  0.18821137     0.11500
H812        H  0.81039640  0.45527537  0.14954458     0.08100
C813        C  0.47286187  0.31785781  0.81627575    -0.11000
C814        C  0.49730772  0.32104642  0.83565010     0.06100
C815        C  0.52084235  0.30027579  0.83404189    -0.09800
C816        C  0.52083032  0.27807489  0.81202485    -0.11400
C817        C  0.49729932  0.27640380  0.79149015    -0.01200
C818        C  0.47298557  0.29585001  0.79424222    -0.10300
C819        C  0.49884602  0.34688685  0.85628260     0.06100
H820        H  0.54004563  0.30229671  0.84859495     0.08100
H821        H  0.54011002  0.26367462  0.80964378     0.11500
H822        H  0.45488737  0.29507074  0.77820410     0.11800
H823        H  0.45415122  0.33311882  0.81743918     0.08100
C824        C  0.49004578  0.37552373  0.84667658    -0.11000
C825        C  0.49094790  0.39985621  0.86625099    -0.10300
C826        C  0.50049981  0.39592534  0.89584035    -0.01200
C827        C  0.50997996  0.36740932  0.90516674    -0.11400
C828        C  0.50921891  0.34319795  0.88559740    -0.09800
H829        H  0.48252068  0.37911713  0.82395854     0.08100
H830        H  0.48356619  0.42152682  0.85843593     0.11800
H831        H  0.51777940  0.36367556  0.92778025     0.11500
H832        H  0.51611735  0.32144297  0.89361518     0.08100
C833        C  0.49300496  0.69369866  0.83129486    -0.11000
C834        C  0.51354639  0.67007552  0.83338706     0.06100
C835        C  0.53841003  0.66967060  0.81432340    -0.09800
C836        C  0.54157499  0.69131490  0.79218442    -0.11400
C837        C  0.51994264  0.71370994  0.78872133    -0.01200
C838        C  0.49614226  0.71534337  0.80903021    -0.10300
C839        C  0.50843959  0.64518303  0.85442416     0.06100
H840        H  0.55491935  0.65207955  0.81596914     0.08100
H841        H  0.56013437  0.68968940  0.77674110     0.11500
H842        H  0.47881917  0.73198333  0.80637743     0.11800
H843        H  0.47359448  0.69444474  0.84570850     0.08100
C844        C  0.49918143  0.65093000  0.88377426    -0.11000
C845        C  0.49534013  0.62749555  0.90388261    -0.10300
C846        C  0.50055764  0.59779296  0.89500745    -0.01200
C847        C  0.50888507  0.59195188  0.86532343    -0.11400
C848        C  0.51284473  0.61547078  0.84522177    -0.09800
H849        H  0.49565509  0.67361721  0.89139792     0.08100
H850        H  0.48869408  0.63275529  0.92655910     0.11800
H851        H  0.51303218  0.56933156  0.85780934     0.11500
H852        H  0.51941876  0.61044934  0.82246911     0.08100
C853        C  0.51273074  0.69366228  0.15183968    -0.11000
C854        C  0.49162276  0.67034254  0.15320255     0.06100
C855        C  0.47043459  0.67032435  0.17632159    -0.09800
C856        C  0.47194119  0.69157363  0.19896060    -0.11400
C857        C  0.49430374  0.71348212  0.19864115    -0.01200
C858        C  0.51396414  0.71519096  0.17439439    -0.10300
C859        C  0.49282741  0.64519939  0.13173830     0.06100
H860        H  0.45336972  0.65323104  0.17754880     0.08100
H861        H  0.45665897  0.68993780  0.21767005     0.11500
H862        H  0.53172034  0.73162292  0.17413774     0.11800
H863        H  0.52953103  0.69422763  0.13445610     0.08100
C864        C  0.50088385  0.65031248  0.10190200    -0.11000
C865        C  0.50287219  0.62665244  0.08189443    -0.10300
C866        C  0.49660155  0.59728122  0.09114216    -0.01200
C867        C  0.48858780  0.59200190  0.12098945    -0.11400
C868        C  0.48680391  0.61575220  0.14113766    -0.09800
H869        H  0.50533573  0.67267902  0.09384407     0.08100
H870        H  0.50921723  0.63150509  0.05903674     0.11800
H871        H  0.48351639  0.56963255  0.12871806     0.11500
H872        H  0.48113271  0.61095544  0.16416984     0.08100
C873        C  0.52913794  0.32486011  0.17641602    -0.11000
C874        C  0.50619075  0.32487577  0.15507968     0.06100
C875        C  0.48505509  0.30160665  0.15531945    -0.09800
C876        C  0.48606944  0.27950470  0.17737410    -0.11400
C877        C  0.50822631  0.28039859  0.19943413    -0.01200
C878        C  0.53010320  0.30283379  0.19840923    -0.10300
C879        C  0.50390040  0.34949500  0.13312833     0.06100
H880        H  0.46693776  0.30129697  0.13930823     0.08100
H881        H  0.46847071  0.26293491  0.17835689     0.11500
H882        H  0.54715091  0.30407589  0.21554027     0.11800
H883        H  0.54596791  0.34224011  0.17646164     0.08100
C884        C  0.50834309  0.37931483  0.14198266    -0.11000
C885        C  0.50619533  0.40249738  0.12117296    -0.10300
C886        C  0.49970076  0.39627709  0.09107775    -0.01200
C887        C  0.49512428  0.36641317  0.08236272    -0.11400
C888        C  0.49713836  0.34331914  0.10317042    -0.09800
H889        H  0.51322169  0.38472724  0.16506725     0.08100
H890        H  0.50993168  0.42521655  0.12861038     0.11800
H891        H  0.49008856  0.36077153  0.05937098     0.11500
H892        H  0.49387829  0.32053235  0.09571765     0.08100
C893        C  0.64353239  0.11636467  0.97436427    -0.11000
C894        C  0.63467334  0.14547758  0.98235847     0.06100
C895        C  0.60680712  0.14957518  0.99602273    -0.09800
C896        C  0.58760692  0.12534003  0.00021963    -0.11400
C897        C  0.59592229  0.09637716  0.99110037    -0.01200
C898        C  0.62439366  0.09202998  0.97878107    -0.10300
C899        C  0.65439285  0.17139518  0.97604325     0.06100
H900        H  0.59942108  0.17167093  0.00252892     0.08100
H901        H  0.56591008  0.12941755  0.01009823     0.11500
H902        H  0.63145638  0.07004383  0.97158135     0.11800
H903        H  0.66522072  0.11245564  0.96441641     0.08100
C904        C  0.65888093  0.19394353  0.99750274    -0.11000
C905        C  0.68038137  0.21616993  0.99280584    -0.10300
C906        C  0.69767107  0.21608618  0.96665089    -0.01200
C907        C  0.69156952  0.19501806  0.94428097    -0.11400
C908        C  0.67002649  0.17296933  0.94885852    -0.09800
H909        H  0.64713777  0.19332285  0.01865473     0.08100
H910        H  0.68515946  0.23187887  0.01059020     0.11800
H911        H  0.70476761  0.19455992  0.92398784     0.11500
H912        H  0.66642243  0.15640183  0.93159105     0.08100
C913        C  0.34862727  0.87859962  0.01105751    -0.11000
C914        C  0.35675067  0.84894112  0.00461301     0.06100
C915        C  0.38551336  0.84303192  0.99380662    -0.09800
C916        C  0.40609673  0.86616581  0.99038804    -0.11400
C917        C  0.39828850  0.89577264  0.99751599    -0.01200
C918        C  0.36916002  0.90183030  0.00741047    -0.10300
C919        C  0.33541727  0.82419320  0.00962615     0.06100
H920        H  0.39235347  0.82038349  0.98877107     0.08100
H921        H  0.42829859  0.86074898  0.98249655     0.11500
H922        H  0.36245195  0.92437668  0.01305370     0.11800
H923        H  0.32638756  0.88379773  0.01899470     0.08100
C924        C  0.31811331  0.82347002  0.03576526    -0.11000
C925        C  0.29653996  0.80138867  0.03971951    -0.10300
C926        C  0.29187011  0.77959374  0.01766531    -0.01200
C927        C  0.31008575  0.77933566  0.99217292    -0.11400
C928        C  0.33177063  0.80148432  0.98819348    -0.09800
H929        H  0.32088909  0.84034158  0.05289558     0.08100
H930        H  0.28259138  0.80201938  0.05949914     0.11800
H931        H  0.30634219  0.76316681  0.97455963     0.11500
H932        H  0.34474391  0.80165412  0.96776382     0.08100
C933        C  0.64424866  0.87377370  0.99355140    -0.11000
C934        C  0.63359533  0.84430977  0.99153415     0.06100
C935        C  0.60288945  0.83907509  0.99004656    -0.09800
C936        C  0.58304697  0.86305072  0.99022226    -0.11400
C937        C  0.59355373  0.89273100  0.99227332    -0.01200
C938        C  0.62440898  0.89780887  0.99401870    -0.10300
C939        C  0.65486225  0.81931298  0.99084659     0.06100
H940        H  0.59432743  0.81649921  0.98834062     0.08100
H941        H  0.55941030  0.85822006  0.98870600     0.11500
H942        H  0.63322145  0.92026631  0.99581817     0.11800
H943        H  0.66799192  0.87812486  0.99502293     0.08100
C944        C  0.67826289  0.81986269  0.97012032    -0.11000
C945        C  0.70150815  0.79946608  0.97237948    -0.10300
C946        C  0.70169922  0.77820247  0.99535134    -0.01200
C947        C  0.67721623  0.77603943  0.01479712    -0.11400
C948        C  0.65371951  0.79652858  0.01245627    -0.09800
H949        H  0.67923416  0.83702180  0.95306510     0.08100
H950        H  0.72025374  0.80132300  0.95718202     0.11800
H951        H  0.67725511  0.75994966  0.03288791     0.11500
H952        H  0.63573643  0.79584210  0.02863595     0.08100
C953        C  0.35057958  0.11620941  0.99439414    -0.11000
C954        C  0.36090138  0.14592314  0.99391128     0.06100
C955        C  0.39166303  0.15136536  0.99404361    -0.09800
C956        C  0.41174876  0.12757093  0.99389139    -0.11400
C957        C  0.40150676  0.09775817  0.99383094    -0.01200
C958        C  0.37066173  0.09235784  0.99432200    -0.10300
C959        C  0.33941776  0.17095683  0.99219030     0.06100
H960        H  0.40017749  0.17400924  0.99351104     0.08100
H961        H  0.43537807  0.13266122  0.99360917     0.11500
H962        H  0.36201318  0.06976281  0.99456270     0.11800
H963        H  0.32688320  0.11142742  0.99481477     0.08100
C964        C  0.31490498  0.16864891  0.97290973    -0.11000
C965        C  0.29267275  0.19024734  0.97320206    -0.10300
C966        C  0.29430078  0.21460992  0.99284476    -0.01200
C967        C  0.31973335  0.21822720  0.01079055    -0.11400
C968        C  0.34235061  0.19654564  0.01030908    -0.09800
H969        H  0.31247248  0.14959641  0.95818369     0.08100
H970        H  0.27320927  0.18705421  0.95918673     0.11800
H971        H  0.32117602  0.23661649  0.02645379     0.11500
H972        H  0.36118508  0.19887819  0.02529526     0.08100
C973        C  0.48437310  0.14549628  0.87876648    -0.11000
C974        C  0.49131647  0.13849744  0.84891089    -0.17300
C975        C  0.49767986  0.10859882  0.84158913    -0.09800
C976        C  0.49808350  0.08646259  0.86362853    -0.11400
C977        C  0.49218742  0.09362173  0.89364315    -0.01200
C978        C  0.48487419  0.12333573  0.90088172    -0.10300
C979        C  0.49333630  0.16230978  0.82566160     0.06100
H980        H  0.50253315  0.10228307  0.81873660     0.08100
H981        H  0.50361092  0.06381120  0.85718195     0.11500
H982        H  0.47985661  0.12957441  0.92372936     0.11800
H983        H  0.47949907  0.16828018  0.88524134     0.08100
C984        C  0.47312863  0.18639970  0.82500148    -0.11000
C985        C  0.47560507  0.20869794  0.80307382    -0.10300
C986        C  0.49829891  0.20733450  0.78140337    -0.01200
C987        C  0.51848187  0.18341342  0.78219243    -0.11400
C988        C  0.51608467  0.16124083  0.80401600    -0.09800
H989        H  0.45519515  0.18780637  0.84117053     0.08100
H990        H  0.45961904  0.22681342  0.80279989     0.11800
H991        H  0.53655405  0.18220680  0.76617830     0.11500
H992        H  0.53249524  0.14350159  0.80426068     0.08100
C993        C  0.48970243  0.87829424  0.84346224    -0.11000
C994        C  0.50099011  0.84963189  0.84980712     0.06100
C995        C  0.51124608  0.84385623  0.87903366    -0.09800
C996        C  0.51023589  0.86600779  0.90117300    -0.11400
C997        C  0.49905606  0.89464004  0.89473162    -0.01200
C998        C  0.48883877  0.90049129  0.86557211    -0.10300
C999        C  0.50253652  0.82606225  0.82602635     0.06100
H1000       H  0.51974932  0.82203129  0.88500577     0.08100
H1001       H  0.51845722  0.86075652  0.92332668     0.11500
H1002       H  0.48001221  0.92226763  0.85983254     0.11800
H1003       H  0.48200716  0.88383108  0.82120951     0.08100
C1004       C  0.48041096  0.82376444  0.80369912    -0.11000
C1005       C  0.48232196  0.80187774  0.78127464    -0.10300
C1006       C  0.50640605  0.78179523  0.78060004    -0.01200
C1007       C  0.52832354  0.78393581  0.80293742    -0.11400
C1008       C  0.52646290  0.80571348  0.82528104    -0.09800
H1009       H  0.46137459  0.83863764  0.80373789     0.08100
H1010       H  0.46488059  0.80047287  0.76459876     0.11800
H1011       H  0.54732968  0.76902201  0.80273407     0.11500
H1012       H  0.54425134  0.80699667  0.84158994     0.08100
C1013       C  0.49386648  0.84331393  0.10932602    -0.11000
C1014       C  0.49815166  0.85099507  0.13948100     0.06100
C1015       C  0.50143852  0.88131894  0.14693721    -0.09800
C1016       C  0.50062553  0.90346252  0.12475685    -0.11400
C1017       C  0.49691188  0.89583813  0.09442892    -0.01200
C1018       C  0.49346746  0.86540315  0.08706100    -0.10300
C1019       C  0.49991378  0.82743202  0.16299506     0.06100
H1020       H  0.50453048  0.88790162  0.17002795     0.08100
H1021       H  0.50326448  0.92657180  0.13139925     0.11500
H1022       H  0.49052629  0.85856486  0.06403109     0.11800
H1023       H  0.49146294  0.82010676  0.10290728     0.08100
C1024       C  0.47811273  0.80490049  0.16496573    -0.11000
C1025       C  0.47999284  0.78270042  0.18704411    -0.10300
C1026       C  0.50394085  0.78226081  0.20737941    -0.01200
C1027       C  0.52578481  0.80472386  0.20528147    -0.11400
C1028       C  0.52369254  0.82715008  0.18349624    -0.09800
H1029       H  0.45940341  0.80471420  0.14964285     0.08100
H1030       H  0.46258677  0.76598340  0.18840780     0.11800
H1031       H  0.54466999  0.80471910  0.22036254     0.11500
H1032       H  0.54098332  0.84402637  0.18229845     0.08100
C1033       C  0.50542614  0.14931232  0.10670821    -0.11000
C1034       C  0.49875153  0.14267038  0.13673518     0.06100
C1035       C  0.49228043  0.11282687  0.14428368    -0.09800
C1036       C  0.49258336  0.09025221  0.12253615    -0.11400
C1037       C  0.49912744  0.09684617  0.09248043    -0.01200
C1038       C  0.50544029  0.12676309  0.08486027    -0.10300
C1039       C  0.49837185  0.16661770  0.16014603     0.06100
H1040       H  0.48734233  0.10680700  0.16720186     0.08100
H1041       H  0.48748585  0.06758997  0.12930474     0.11500
H1042       H  0.51056083  0.13279283  0.06197776     0.11800
H1043       H  0.51021230  0.17206281  0.10000411     0.08100
C1044       C  0.52036134  0.18911422  0.16083608    -0.11000
C1045       C  0.52031809  0.21094150  0.18341127    -0.10300
C1046       C  0.49811601  0.21104788  0.20568602    -0.01200
C1047       C  0.47585936  0.18893307  0.20463142    -0.11400
C1048       C  0.47608652  0.16693799  0.18233002    -0.09800
H1049       H  0.53803270  0.18942083  0.14431982     0.08100
H1050       H  0.53796498  0.22745928  0.18377942     0.11800
H1051       H  0.45809624  0.18875879  0.22102135     0.11500
H1052       H  0.45851238  0.15032778  0.18223393     0.08100
C1053       C  0.39097443  0.00024801  0.14985893    -0.11000
C1054       C  0.36082294  0.00626951  0.14437097     0.06100
C1055       C  0.35078442  0.00842834  0.11464707    -0.09800
C1056       C  0.37066072  0.00483021  0.09080235    -0.11400
C1057       C  0.40101778  0.99924331  0.09626701    -0.01200
C1058       C  0.41086659  0.99687102  0.12611374    -0.10300
C1059       C  0.33966696  0.00981221  0.16949897     0.06100
H1060       H  0.32746587  0.01265325  0.10987417     0.08100
H1061       H  0.36232372  0.00681909  0.06817008     0.11500
H1062       H  0.43408923  0.99260453  0.13126370     0.11800
H1063       H  0.39923526  0.99859551  0.17255332     0.08100
C1064       C  0.33879137  0.98882920  0.19292440    -0.11000
C1065       C  0.31594911  0.98990333  0.21427361    -0.10300
C1066       C  0.29398488  0.01211120  0.21247182    -0.01200
C1067       C  0.29624115  0.03431240  0.19045611    -0.11400
C1068       C  0.31887261  0.03319515  0.16914714    -0.09800
H1069       H  0.35458624  0.97053681  0.19357585     0.08100
H1070       H  0.31413222  0.97218187  0.23066697     0.11800
H1071       H  0.27926226  0.05144160  0.18860431     0.11500
H1072       H  0.31941213  0.04990630  0.15163857     0.08100
C1073       C  0.68141501  0.01991949  0.81983031    -0.11000
C1074       C  0.65705389  0.00028110  0.81891972     0.06100
C1075       C  0.65453836  0.97996177  0.79503386    -0.09800
C1076       C  0.67720573  0.97784451  0.77363926    -0.11400
C1077       C  0.70241808  0.99619088  0.77585729    -0.01200
C1078       C  0.70389697  0.01787142  0.79846159    -0.10300
C1079       C  0.63552363  0.99954100  0.84392485     0.06100
H1080       H  0.63601018  0.96445294  0.79399475     0.08100
H1081       H  0.67608734  0.96052974  0.75676405     0.11500
H1082       H  0.72342171  0.03201108  0.80061040     0.11800
H1083       H  0.68361706  0.03606583  0.83773002     0.08100
C1084       C  0.64562604  0.99989459  0.87369511    -0.11000
C1085       C  0.62536256  0.99800821  0.89738493    -0.10300
C1086       C  0.59459617  0.99587950  0.89171624    -0.01200
C1087       C  0.58464062  0.99563703  0.86183083    -0.11400
C1088       C  0.60488044  0.99740635  0.83823837    -0.09800
H1089       H  0.66926212  0.00110019  0.87863234     0.08100
H1090       H  0.63379654  0.99828010  0.92006670     0.11800
H1091       H  0.56110885  0.99414782  0.85652941     0.11500
H1092       H  0.59656431  0.99729268  0.81550438     0.08100
C1093       C  0.33854518  0.00502034  0.79657004    -0.11000
C1094       C  0.33888776  0.98312751  0.81915597     0.06100
C1095       C  0.31762727  0.96012313  0.81845316    -0.09800
C1096       C  0.29500856  0.96035619  0.79706444    -0.11400
C1097       C  0.29335262  0.98347314  0.77594099    -0.01200
C1098       C  0.31584134  0.00523545  0.77512308    -0.10300
C1099       C  0.35991977  0.98553094  0.84454938     0.06100
H1100       H  0.31781019  0.94264228  0.83519639     0.08100
H1101       H  0.27780085  0.94336648  0.79799724     0.11500
H1102       H  0.31464358  0.02355045  0.75934474     0.11800
H1103       H  0.35467021  0.02305117  0.79665707     0.08100
C1104       C  0.38987593  0.99283524  0.83948875    -0.11000
C1105       C  0.40950239  0.99595357  0.86342378    -0.10300
C1106       C  0.39966410  0.99192365  0.89309619    -0.01200
C1107       C  0.36954783  0.98490828  0.89822168    -0.11400
C1108       C  0.34987805  0.98163627  0.87413168    -0.09800
H1109       H  0.39820309  0.99586201  0.81695445     0.08100
H1110       H  0.43253990  0.00143748  0.85854197     0.11800
H1111       H  0.36128320  0.98158285  0.92073135     0.11500
H1112       H  0.32669318  0.97645673  0.87863542     0.08100
C1113       C  0.46338110  0.17707291  0.31776211    -0.11000
C1114       C  0.48486768  0.15430401  0.31702635     0.06100
C1115       C  0.50528440  0.15340682  0.29307314    -0.09800
C1116       C  0.50593430  0.17643764  0.27189931    -0.11400
C1117       C  0.48606270  0.20047435  0.27436526    -0.01200
C1118       C  0.46400543  0.19993059  0.29664913    -0.10300
C1119       C  0.48735063  0.13304272  0.34234800     0.06100
H1120       H  0.52210246  0.13609066  0.29190241     0.08100
H1121       H  0.52340150  0.17666283  0.25515821     0.11500
H1122       H  0.44839953  0.21828330  0.29884743     0.11800
H1123       H  0.44688314  0.17790647  0.33544343     0.08100
C1124       C  0.48433529  0.14307722  0.37204853    -0.11000
C1125       C  0.48741186  0.12323301  0.39603183    -0.10300
C1126       C  0.49354418  0.09291200  0.39079386    -0.01200
C1127       C  0.49664895  0.08303285  0.36103179    -0.11400
C1128       C  0.49363363  0.10283834  0.33715300    -0.09800
H1129       H  0.48001756  0.16640465  0.37677249     0.08100
H1130       H  0.48481122  0.13160617  0.41859419     0.11800
H1131       H  0.50133942  0.05983947  0.35603660     0.11500
H1132       H  0.49589935  0.09442378  0.31457025     0.08100
C1133       C  0.51491903  0.84779536  0.37478422    -0.11000
C1134       C  0.50934957  0.85654797  0.34505841     0.06100
C1135       C  0.49969399  0.88580907  0.33945732    -0.09800
C1136       C  0.49615960  0.90601704  0.36290058    -0.11400
C1137       C  0.50221474  0.89749699  0.39258951    -0.01200
C1138       C  0.51137122  0.86805890  0.39831458    -0.10300
C1139       C  0.51324437  0.83513040  0.32004467     0.06100
H1140       H  0.49542305  0.89331553  0.31684938     0.08100
H1141       H  0.48894414  0.92849643  0.35763975     0.11500
H1142       H  0.51627043  0.86081065  0.42088384     0.11800
H1143       H  0.52183869  0.82519582  0.37990356     0.08100
C1144       C  0.53685459  0.81452061  0.32041733    -0.11000
C1145       C  0.53872938  0.79235613  0.29862950    -0.10300
C1146       C  0.51713248  0.79040405  0.27599370    -0.01200
C1147       C  0.49468430  0.81210746  0.27432631    -0.11400
C1148       C  0.49274245  0.83431800  0.29619836    -0.09800
H1149       H  0.55341217  0.81499658  0.33803852     0.08100
H1150       H  0.55617699  0.77569242  0.30035005     0.11800
H1151       H  0.47735795  0.81058066  0.25752457     0.11500
H1152       H  0.47416527  0.84974461  0.29538218     0.08100
C1153       C  0.48229656  0.10737861  0.64485281    -0.11000
C1154       C  0.49719785  0.13477091  0.64162923     0.06100
C1155       C  0.50862075  0.14270295  0.61339484    -0.09800
C1156       C  0.50636804  0.12309363  0.58922650    -0.11400
C1157       C  0.49294769  0.09504837  0.59293366    -0.01200
C1158       C  0.48028777  0.08765223  0.62076006    -0.10300
C1159       C  0.50135669  0.15492972  0.66759723     0.06100
H1160       H  0.51960446  0.16400161  0.61007215     0.08100
H1161       H  0.51622197  0.12936162  0.56801487     0.11500
H1162       H  0.46944537  0.06626791  0.62409628     0.11800
H1163       H  0.47318128  0.10072418  0.66626696     0.08100
C1164       C  0.47798297  0.16025276  0.68794573    -0.11000
C1165       C  0.48115882  0.18181021  0.71040890    -0.10300
C1166       C  0.50766313  0.19831691  0.71265935    -0.01200
C1167       C  0.53160746  0.19165452  0.69364681    -0.11400
C1168       C  0.52857779  0.17002709  0.67145474    -0.09800
H1169       H  0.45673169  0.14899488  0.68545995     0.08100
H1170       H  0.46225433  0.18710753  0.72454553     0.11800
H1171       H  0.55216952  0.20433045  0.69501978     0.11500
H1172       H  0.54722918  0.16583061  0.65663397     0.08100
C1173       C  0.49369443  0.84777059  0.61347107    -0.11000
C1174       C  0.49303125  0.85777514  0.64328467     0.06100
C1175       C  0.49337854  0.88852584  0.64902477    -0.09800
C1176       C  0.49420845  0.90892300  0.62545428    -0.11400
C1177       C  0.49499523  0.89903395  0.59553569    -0.01200
C1178       C  0.49468785  0.86818052  0.58982763    -0.10300
C1179       C  0.49250616  0.83605893  0.66823968     0.06100
H1180       H  0.49269861  0.89679977  0.67176727     0.08100
H1181       H  0.49430089  0.93251439  0.63079807     0.11500
H1182       H  0.49534460  0.85977276  0.56713984     0.11800
H1183       H  0.49390588  0.82410111  0.60845906     0.08100
C1184       C  0.47402938  0.81081144  0.66661390    -0.11000
C1185       C  0.47633673  0.78828023  0.68796251    -0.10300
C1186       C  0.49714579  0.79056829  0.71129662    -0.01200
C1187       C  0.51407533  0.81670787  0.71431103    -0.11400
C1188       C  0.51171804  0.83939915  0.69291548    -0.09800
H1189       H  0.45862010  0.80798583  0.64817500     0.08100
H1190       H  0.46317377  0.76814692  0.68523495     0.11800
H1191       H  0.53068305  0.81857969  0.73179782     0.11500
H1192       H  0.52626527  0.85864738  0.69462592     0.08100
C1193       C  0.32675819  0.02543974  0.30480228    -0.11000
C1194       C  0.32768398  0.00206451  0.32594217     0.06100
C1195       C  0.30524712  0.97998196  0.32443859    -0.09800
C1196       C  0.28287862  0.98111010  0.30246576    -0.11400
C1197       C  0.28235104  0.00419619  0.28120044    -0.01200
C1198       C  0.30446829  0.02642568  0.28272568    -0.10300
C1199       C  0.35192663  0.00059763  0.34925439     0.06100
H1200       H  0.30531414  0.96133587  0.33983774     0.08100
H1201       H  0.26640115  0.96343944  0.30155411     0.11500
H1202       H  0.30441845  0.04465392  0.26681842     0.11800
H1203       H  0.34314310  0.04320236  0.30542601     0.08100
C1204       C  0.34605620  0.98950581  0.37816505    -0.11000
C1205       C  0.36863118  0.98813510  0.39992762    -0.10300
C1206       C  0.39793022  0.99757370  0.39348198    -0.01200
C1207       C  0.40390618  0.00854579  0.36458740    -0.11400
C1208       C  0.38125968  0.01014294  0.34287295    -0.09800
H1209       H  0.32380545  0.98229339  0.38424391     0.08100
H1210       H  0.36310728  0.97952669  0.42187162     0.11800
H1211       H  0.42610266  0.01619807  0.35879124     0.11500
H1212       H  0.38692742  0.01847273  0.32087521     0.08100
C1213       C  0.66832834  0.01324569  0.68483371    -0.11000
C1214       C  0.66815929  0.99327259  0.66049939     0.06100
C1215       C  0.69076297  0.97149399  0.65904632    -0.09800
C1216       C  0.71238367  0.96928254  0.68160925    -0.11400
C1217       C  0.71232022  0.98897513  0.70614381    -0.01200
C1218       C  0.69019385  0.01123473  0.70723244    -0.10300
C1219       C  0.64420978  0.99470050  0.63713281     0.06100
H1220       H  0.69123233  0.95549675  0.64090231     0.08100
H1221       H  0.72878475  0.95160583  0.68022699     0.11500
H1222       H  0.68985024  0.02722719  0.72535082     0.11800
H1223       H  0.65165825  0.03066954  0.68644404     0.08100
C1224       C  0.61437584  0.00069188  0.64504284    -0.11000
C1225       C  0.59178944  0.00140760  0.62332028    -0.10300
C1226       C  0.59840025  0.99636137  0.59298496    -0.01200
C1227       C  0.62827267  0.99050369  0.58504382    -0.11400
C1228       C  0.65080410  0.98960000  0.60678910    -0.09800
H1229       H  0.60834065  0.00430197  0.66819651     0.08100
H1230       H  0.56910977  0.00594024  0.63034724     0.11800
H1231       H  0.63430779  0.98639668  0.56196099     0.11500
H1232       H  0.67350400  0.98519732  0.59975393     0.08100
C1233       C  0.30914203  0.01902364  0.66414601    -0.11000
C1234       C  0.33125599  0.99667447  0.66349141     0.06100
C1235       C  0.33026275  0.97408032  0.68534245    -0.09800
C1236       C  0.30756632  0.97360389  0.70690808    -0.11400
C1237       C  0.28547712  0.99591254  0.70752287    -0.01200
C1238       C  0.28662728  0.01870920  0.68595021    -0.10300
C1239       C  0.35480624  0.99655148  0.63974427     0.06100
H1240       H  0.34662302  0.95628957  0.68532110     0.08100
H1241       H  0.30701634  0.95547484  0.72290424     0.11500
H1242       H  0.27025571  0.03647200  0.68614086     0.11800
H1243       H  0.30944924  0.03701250  0.64796876     0.08100
C1244       C  0.34764398  0.00385734  0.60999898    -0.11000
C1245       C  0.36946248  0.00329690  0.58752233    -0.10300
C1246       C  0.39917385  0.99566075  0.59416503    -0.01200
C1247       C  0.40642031  0.98851120  0.62398592    -0.11400
C1248       C  0.38451332  0.98880177  0.64642217    -0.09800
H1249       H  0.32495974  0.00956933  0.60395169     0.08100
H1250       H  0.36304466  0.00906294  0.56491210     0.11800
H1251       H  0.42904550  0.98250365  0.63001498     0.11500
H1252       H  0.39092769  0.98330930  0.66910433     0.08100
C1253       C  0.67911526  0.95831746  0.16621186    -0.11000
C1254       C  0.65892499  0.98225718  0.16638353     0.06100
C1255       C  0.66025266  0.00319592  0.18984305    -0.09800
C1256       C  0.68250934  0.00114750  0.21169916    -0.11400
C1257       C  0.70363231  0.97809414  0.21040116    -0.01200
C1258       C  0.70124714  0.95630254  0.18797089    -0.10300
C1259       C  0.63738081  0.98590211  0.14152224     0.06100
H1260       H  0.64509439  0.02201735  0.19040205     0.08100
H1261       H  0.68442108  0.01862548  0.22832705     0.11500
H1262       H  0.71748371  0.93843682  0.18647889     0.11800
H1263       H  0.67825827  0.94152940  0.14880221     0.08100
C1264       C  0.64617084  0.98064773  0.11176264    -0.11000
C1265       C  0.62583604  0.98400391  0.08830832    -0.10300
C1266       C  0.59627545  0.99257720  0.09417674    -0.01200
C1267       C  0.58763899  0.99806899  0.12395189    -0.11400
C1268       C  0.60796095  0.99480954  0.14731792    -0.09800
H1269       H  0.66886959  0.97415230  0.10658640     0.08100
H1270       H  0.63314539  0.97944326  0.06568509     0.11800
H1271       H  0.56502403  0.00470552  0.12932625     0.11500
H1272       H  0.60049590  0.99875478  0.17000424     0.08100
C1273       C  0.69017886  0.01216600  0.32420273    -0.11000
C1274       C  0.66760963  0.99025477  0.32557726     0.06100
C1275       C  0.66735205  0.96788501  0.30340145    -0.09800
C1276       C  0.68903360  0.96731185  0.28079626    -0.11400
C1277       C  0.71164543  0.98904330  0.27963351    -0.01200
C1278       C  0.71180306  0.01161811  0.30148835    -0.10300
C1279       C  0.64428983  0.99085691  0.34971429     0.06100
H1280       H  0.65074974  0.95032047  0.30382910     0.08100
H1281       H  0.68855010  0.94940350  0.26455022     0.11500
H1282       H  0.72860524  0.02898260  0.30090688     0.11800
H1283       H  0.69089461  0.03009949  0.34041086     0.08100
C1284       C  0.65114510  0.00048910  0.37892916    -0.11000
C1285       C  0.62908381  0.00134512  0.40125533    -0.10300
C1286       C  0.59947273  0.99279118  0.39495470    -0.01200
C1287       C  0.59273581  0.98286399  0.36591934    -0.11400
C1288       C  0.61475735  0.98189480  0.34368439    -0.09800
H1289       H  0.67366437  0.00710254  0.38469015     0.08100
H1290       H  0.63518057  0.00902285  0.42338833     0.11800
H1291       H  0.57030536  0.97581871  0.36028888     0.11500
H1292       H  0.60837308  0.97466328  0.32150848     0.08100
C1293       C  0.32152316  0.81365198  0.47277932    -0.11000
C1294       C  0.32216304  0.83740488  0.49318113     0.06100
C1295       C  0.29916076  0.83998616  0.51446717    -0.09800
C1296       C  0.27737351  0.81766355  0.51696367    -0.11400
C1297       C  0.27827784  0.79276056  0.49801362    -0.01200
C1298       C  0.29973412  0.79152510  0.47518546    -0.10300
C1299       C  0.34782324  0.85821287  0.49353438     0.06100
H1300       H  0.29922702  0.85818125  0.53042308     0.08100
H1301       H  0.26135662  0.81864987  0.53508078     0.11500
H1302       H  0.30086905  0.77228151  0.46054077     0.11800
H1303       H  0.33868811  0.81152222  0.45585301     0.08100
C1304       C  0.37729490  0.84729844  0.49364003    -0.11000
C1305       C  0.40159238  0.86701626  0.49455457    -0.10300
C1306       C  0.39678388  0.89801129  0.49508830    -0.01200
C1307       C  0.36713111  0.90869220  0.49516876    -0.11400
C1308       C  0.34301196  0.88904614  0.49449274    -0.09800
H1309       H  0.38148299  0.82347260  0.49336510     0.08100
H1310       H  0.42402338  0.85802492  0.49466101     0.11800
H1311       H  0.36235863  0.93239817  0.49558262     0.11500
H1312       H  0.32053846  0.89796246  0.49437098     0.08100
C1313       C  0.69730563  0.84010067  0.47643305    -0.11000
C1314       C  0.67470111  0.83850799  0.49819559     0.06100
C1315       C  0.67462538  0.81480194  0.51862606    -0.09800
C1316       C  0.69532960  0.79176244  0.51592585    -0.11400
C1317       C  0.71642808  0.79202424  0.49276145    -0.01200
C1318       C  0.71806904  0.81684509  0.47364451    -0.10300
C1319       C  0.64947864  0.85967130  0.49786153     0.06100
H1320       H  0.65763585  0.81345138  0.53581226     0.08100
H1321       H  0.69387434  0.77284992  0.53096986     0.11500
H1322       H  0.73400278  0.81727150  0.45543270     0.11800
H1323       H  0.69767193  0.85829477  0.46046712     0.08100
C1324       C  0.65443215  0.89042303  0.50014157    -0.11000
C1325       C  0.63036894  0.91021370  0.49952592    -0.10300
C1326       C  0.60083035  0.89967180  0.49619751    -0.01200
C1327       C  0.59601154  0.86875862  0.49391554    -0.11400
C1328       C  0.62013371  0.84895250  0.49486470    -0.09800
H1329       H  0.67688239  0.89907422  0.50263540     0.08100
H1330       H  0.63502848  0.93386141  0.50161036     0.11800
H1331       H  0.57368675  0.85987995  0.49123408     0.11500
H1332       H  0.61596106  0.82520059  0.49282173     0.08100
C1333       C  0.69545474  0.15408174  0.51697792    -0.11000
C1334       C  0.67252916  0.15600993  0.49550556     0.06100
C1335       C  0.67281846  0.17961815  0.47491867    -0.09800
C1336       C  0.69421887  0.20201865  0.47705951    -0.11400
C1337       C  0.71585423  0.20117592  0.49965670    -0.01200
C1338       C  0.71700155  0.17667513  0.51911399    -0.10300
C1339       C  0.64734545  0.13460987  0.49547996     0.06100
H1340       H  0.65583439  0.18129218  0.45777851     0.08100
H1341       H  0.69297191  0.22093555  0.46199309     0.11500
H1342       H  0.73324197  0.17602549  0.53703545     0.11800
H1343       H  0.69567578  0.13608625  0.53315706     0.08100
C1344       C  0.65253852  0.10398793  0.49898603    -0.11000
C1345       C  0.62875059  0.08390317  0.49878265    -0.10300
C1346       C  0.59911851  0.09396694  0.49518953    -0.01200
C1347       C  0.59391719  0.12471073  0.49200500    -0.11400
C1348       C  0.61781576  0.14482123  0.49209410    -0.09800
H1349       H  0.67504859  0.09552521  0.50145324     0.08100
H1350       H  0.63372532  0.06037670  0.50138300     0.11800
H1351       H  0.57146388  0.13322116  0.48928517     0.11500
H1352       H  0.61318103  0.16845355  0.48981439     0.08100
C1353       C  0.31892452  0.17186473  0.46064295    -0.11000
C1354       C  0.32032775  0.15120989  0.48417793     0.06100
C1355       C  0.29865734  0.15237904  0.50693796    -0.09800
C1356       C  0.27763455  0.17552762  0.50744704    -0.11400
C1357       C  0.27808164  0.19760909  0.48516062    -0.01200
C1358       C  0.29810011  0.19494244  0.46123618    -0.10300
C1359       C  0.34596407  0.13048310  0.48626079     0.06100
H1360       H  0.29924800  0.13665288  0.52533218     0.08100
H1361       H  0.26254455  0.17737722  0.52627842     0.11500
H1362       H  0.29859036  0.21166268  0.44373546     0.11800
H1363       H  0.33488227  0.17096792  0.44247143     0.08100
C1364       C  0.34169245  0.10054961  0.49425033    -0.11000
C1365       C  0.36606190  0.08132167  0.49649281    -0.10300
C1366       C  0.39531799  0.09161508  0.49092309    -0.01200
C1367       C  0.39962235  0.12173600  0.48344734    -0.11400
C1368       C  0.37514963  0.14094636  0.48103471    -0.09800
H1369       H  0.31947362  0.09193554  0.49839057     0.08100
H1370       H  0.36186322  0.05825640  0.50249177     0.11800
H1371       H  0.42178238  0.13035488  0.47904429     0.11500
H1372       H  0.37906287  0.16414334  0.47537234     0.08100
C1373       C  0.88080749  0.97828316  0.64370989    -0.11000
C1374       C  0.85149044  0.98595719  0.63545111     0.06100
C1375       C  0.84601873  0.99681872  0.60662677    -0.09800
C1376       C  0.86927295  0.99965701  0.58624303    -0.11400
C1377       C  0.89858615  0.99185500  0.59428446    -0.01200
C1378       C  0.90422629  0.98129047  0.62328815    -0.10300
C1379       C  0.82652788  0.98241782  0.65667301     0.06100
H1380       H  0.82361023  0.00258982  0.59963989     0.08100
H1381       H  0.86420072  0.00792287  0.56406384     0.11500
H1382       H  0.92655852  0.97492032  0.63000949     0.11800
H1383       H  0.88561056  0.97011365  0.66598589     0.08100
C1384       C  0.82458622  0.95670381  0.67445728    -0.11000
C1385       C  0.80208410  0.95405462  0.69573018    -0.10300
C1386       C  0.78114128  0.97700568  0.69954369    -0.01200
C1387       C  0.78207644  0.00210467  0.68086878    -0.11400
C1388       C  0.80467097  0.00480393  0.65951974    -0.09800
H1389       H  0.84081397  0.93891058  0.67229929     0.08100
H1390       H  0.80182118  0.93468377  0.71025496     0.11800
H1391       H  0.76660279  0.02040585  0.68410761     0.11500
H1392       H  0.80585311  0.02496526  0.64618513     0.08100
C1393       C  0.11847034  0.01053945  0.64114316    -0.11000
C1394       C  0.14809965  0.00669092  0.63132640     0.06100
C1395       C  0.15329170  0.99943183  0.60128993    -0.09800
C1396       C  0.12950897  0.99607276  0.58150124    -0.11400
C1397       C  0.09986149  0.99999915  0.59119679    -0.01200
C1398       C  0.09458785  0.00720204  0.62129283    -0.10300
C1399       C  0.17335374  0.00889342  0.65267957     0.06100
H1400       H  0.17581155  0.99656471  0.59298525     0.08100
H1401       H  0.13448580  0.99052442  0.55847148     0.11500
H1402       H  0.07207143  0.01044459  0.62948475     0.11800
H1403       H  0.11369142  0.01560998  0.66432136     0.08100
C1404       C  0.17295813  0.03033197  0.67557587    -0.11000
C1405       C  0.19427384  0.02950826  0.69826459    -0.10300
C1406       C  0.21653310  0.00744001  0.69838415    -0.01200
C1407       C  0.21845607  0.98748027  0.67435696    -0.11400
C1408       C  0.19701156  0.98819626  0.65164180    -0.09800
H1409       H  0.15547285  0.04699528  0.67660350     0.08100
H1410       H  0.19237884  0.04505932  0.71672673     0.11800
H1411       H  0.23505335  0.96990243  0.67435295     0.11500
H1412       H  0.19784554  0.97126292  0.63438844     0.08100
C1413       C  0.18911717  0.01701844  0.33067390    -0.11000
C1414       C  0.16779888  0.99386321  0.33106554     0.06100
C1415       C  0.16993199  0.97079993  0.30998233    -0.09800
C1416       C  0.19209928  0.97143893  0.28820301    -0.11400
C1417       C  0.21269702  0.99501311  0.28711772    -0.01200
C1418       C  0.21146682  0.01758871  0.30877902    -0.10300
C1419       C  0.14321752  0.99367851  0.35316579     0.06100
H1420       H  0.15417027  0.95244785  0.31006895     0.08100
H1421       H  0.19248251  0.95406491  0.27134582     0.11500
H1422       H  0.22661164  0.03643077  0.30769667     0.11800
H1423       H  0.18777372  0.03524408  0.34653449     0.08100
C1424       C  0.14892621  0.00087762  0.38308939    -0.11000
C1425       C  0.12601216  0.00008982  0.40411902    -0.10300
C1426       C  0.09675306  0.99231506  0.39566529    -0.01200
C1427       C  0.09095984  0.98516627  0.36567361    -0.11400
C1428       C  0.11401691  0.98577780  0.34461867    -0.09800
H1429       H  0.17124578  0.00669288  0.39033952     0.08100
H1430       H  0.13126262  0.00586152  0.42703415     0.11800
H1431       H  0.06869476  0.97903502  0.35850650     0.11500
H1432       H  0.10895574  0.98037635  0.32157349     0.08100
C1433       C  0.84155934  0.99866553  0.38766880    -0.11000
C1434       C  0.84735669  0.00270814  0.35714110     0.06100
C1435       C  0.87718671  0.00498236  0.34747055    -0.09800
C1436       C  0.90070389  0.00319555  0.36790529    -0.11400
C1437       C  0.89490730  0.99909460  0.39847803    -0.01200
C1438       C  0.86502358  0.99689572  0.40808994    -0.10300
C1439       C  0.82258065  0.00340961  0.33518069     0.06100
H1440       H  0.88240997  0.00755408  0.32397384     0.08100
H1441       H  0.92338586  0.00501411  0.35973027     0.11500
H1442       H  0.85964272  0.99374200  0.43147983     0.11800
H1443       H  0.81884993  0.99705992  0.39581230     0.08100
C1444       C  0.79846466  0.98331017  0.33744996    -0.11000
C1445       C  0.77765505  0.98089796  0.31424345    -0.10300
C1446       C  0.78065730  0.99868323  0.28864680    -0.01200
C1447       C  0.80334457  0.02026108  0.28742975    -0.11400
C1448       C  0.82405085  0.02268493  0.31048605    -0.09800
H1449       H  0.79679848  0.96808797  0.35618438     0.08100
H1450       H  0.76060445  0.96377278  0.31535314     0.11800
H1451       H  0.80597761  0.03419865  0.26779434     0.11500
H1452       H  0.84190010  0.03888293  0.30844656     0.08100
C1453       C  0.14809889  0.87844101  0.49082685    -0.11000
C1454       C  0.14025155  0.84848845  0.49607601     0.06100
C1455       C  0.10993580  0.84137178  0.50003776    -0.09800
C1456       C  0.08800158  0.86367251  0.49890062    -0.11400
C1457       C  0.09583327  0.89378812  0.49415703    -0.01200
C1458       C  0.12621593  0.90081288  0.49000953    -0.10300
C1459       C  0.16366286  0.82490633  0.49822340     0.06100
H1460       H  0.10317085  0.81846109  0.50389999     0.08100
H1461       H  0.06490669  0.85730877  0.50214925     0.11500
H1462       H  0.13318277  0.92367863  0.48628123     0.11800
H1463       H  0.17129185  0.88466806  0.48800093     0.08100
C1464       C  0.18716993  0.82348593  0.47738373    -0.11000
C1465       C  0.20961265  0.80179212  0.48009249    -0.10300
C1466       C  0.20920541  0.78127579  0.50388612    -0.01200
C1467       C  0.18553634  0.78252825  0.52447947    -0.11400
C1468       C  0.16298454  0.80395879  0.52162184    -0.09800
H1469       H  0.18808067  0.83908371  0.45889833     0.08100
H1470       H  0.22728306  0.80102992  0.46361182     0.11800
H1471       H  0.18488030  0.76729246  0.54325889     0.11500
H1472       H  0.14539620  0.80466936  0.53821927     0.08100
C1473       C  0.88208694  0.84640656  0.48136102    -0.11000
C1474       C  0.85308945  0.85189726  0.49212680     0.06100
C1475       C  0.84708146  0.87973071  0.50553406    -0.09800
C1476       C  0.86925520  0.90170088  0.50741890    -0.11400
C1477       C  0.89798348  0.89629658  0.49611461    -0.01200
C1478       C  0.90424591  0.86829577  0.48337089    -0.10300
C1479       C  0.82927592  0.82875547  0.48915243     0.06100
H1480       H  0.82501704  0.88489728  0.51391119     0.08100
H1481       H  0.86388686  0.92298396  0.51760083     0.11500
H1482       H  0.92618985  0.86346617  0.47441530     0.11800
H1483       H  0.88778930  0.82508311  0.47149012     0.08100
C1484       C  0.82825143  0.80986735  0.46396625    -0.11000
C1485       C  0.80640787  0.78764893  0.46155356    -0.10300
C1486       C  0.78491286  0.78403975  0.48405094    -0.01200
C1487       C  0.78549209  0.80310352  0.50892309    -0.11400
C1488       C  0.80746720  0.82514387  0.51152628    -0.09800
H1489       H  0.84416698  0.81239719  0.44593140     0.08100
H1490       H  0.80604635  0.77341829  0.44198595     0.11800
H1491       H  0.76925187  0.80048421  0.52665318     0.11500
H1492       H  0.80772384  0.83889273  0.53142194     0.08100
C1493       C  0.80556483  0.16515495  0.48058455    -0.11000
C1494       C  0.83053799  0.16551479  0.49969108     0.06100
C1495       C  0.83271290  0.18850583  0.52100677    -0.09800
C1496       C  0.81042562  0.21031783  0.52338329    -0.11400
C1497       C  0.78553170  0.21006599  0.50424593    -0.01200
C1498       C  0.78346658  0.18728548  0.48268066    -0.10300
C1499       C  0.85404427  0.14186463  0.49777289     0.06100
H1500       H  0.85136615  0.18923831  0.53637264     0.08100
H1501       H  0.81241894  0.22719060  0.54058707     0.11500
H1502       H  0.76492188  0.18673857  0.46721239     0.11800
H1503       H  0.80334670  0.14798382  0.46368339     0.08100
C1504       C  0.84621692  0.11165272  0.49412660    -0.11000
C1505       C  0.86818819  0.08935012  0.49331473    -0.10300
C1506       C  0.89868254  0.09662791  0.49584179    -0.01200
C1507       C  0.90651280  0.12693902  0.49910901    -0.11400
C1508       C  0.88450091  0.14920678  0.50018076    -0.09800
H1509       H  0.82298740  0.10516174  0.49250953     0.08100
H1510       H  0.86120096  0.06633294  0.49075092     0.11800
H1511       H  0.92969116  0.13351152  0.50109911     0.11500
H1512       H  0.89134705  0.17227510  0.50269314     0.08100
C1513       C  0.14981344  0.10815896  0.48681951    -0.11000
C1514       C  0.14328307  0.13715752  0.49690482     0.06100
C1515       C  0.11397371  0.14398029  0.50562309    -0.09800
C1516       C  0.09156688  0.12228840  0.50413862    -0.11400
C1517       C  0.09808781  0.09315416  0.49432649    -0.01200
C1518       C  0.12749957  0.08632115  0.48571685    -0.10300
C1519       C  0.16677608  0.16047472  0.49749090     0.06100
H1520       H  0.10829822  0.16626219  0.51314698     0.08100
H1521       H  0.06918027  0.12826810  0.51103545     0.11500
H1522       H  0.13325310  0.06413932  0.47796007     0.11800
H1523       H  0.17228215  0.10231982  0.48005909     0.08100
C1524       C  0.17023081  0.17930384  0.52244317    -0.11000
C1525       C  0.19198461  0.20178013  0.52241223    -0.10300
C1526       C  0.21051880  0.20572057  0.49744726    -0.01200
C1527       C  0.20720126  0.18683619  0.47267165    -0.11400
C1528       C  0.18555815  0.16441761  0.47267217    -0.09800
H1529       H  0.15620363  0.17650773  0.54196841     0.08100
H1530       H  0.19447953  0.21603116  0.54180660     0.11800
H1531       H  0.22113895  0.18983376  0.45312052     0.11500
H1532       H  0.18309072  0.15050949  0.45301875     0.08100
C1533       C  0.99125244  0.64517650  0.11427746    -0.11000
C1534       C  0.99248108  0.63515382  0.14412135     0.06100
C1535       C  0.99441744  0.60439773  0.14963269    -0.09800
C1536       C  0.99513998  0.58411282  0.12594959    -0.11400
C1537       C  0.99409061  0.59403223  0.09605641    -0.01200
C1538       C  0.99202658  0.62485446  0.09050487    -0.10300
C1539       C  0.99211404  0.65682279  0.16929437     0.06100
H1540       H  0.99506619  0.59595884  0.17231026     0.08100
H1541       H  0.99660127  0.56054698  0.13120078     0.11500
H1542       H  0.99114536  0.63331041  0.06783827     0.11800
H1543       H  0.99019270  0.66881972  0.10926883     0.08100
C1544       C  0.01107893  0.65329491  0.19419884    -0.11000
C1545       C  0.01322370  0.67578936  0.21592276    -0.10300
C1546       C  0.99617560  0.70192225  0.21317780    -0.01200
C1547       C  0.97567389  0.70430518  0.18954465    -0.11400
C1548       C  0.97371508  0.68210658  0.16783416    -0.09800
H1549       H  0.02555250  0.63401741  0.19595295     0.08100
H1550       H  0.02954098  0.67360391  0.23363286     0.11800
H1551       H  0.96208015  0.72416061  0.18707291     0.11500
H1552       H  0.95831660  0.68512267  0.14942623     0.08100
C1553       C  0.98530175  0.79601096  0.33588722    -0.11000
C1554       C  0.00574891  0.81965068  0.33893012     0.06100
C1555       C  0.03176204  0.81976276  0.32145206    -0.09800
C1556       C  0.03598906  0.79819548  0.29947241    -0.11400
C1557       C  0.01439334  0.77605679  0.29472513    -0.01200
C1558       C  0.98963048  0.77427081  0.31384189    -0.10300
C1559       C  0.99965302  0.84500445  0.35912745     0.06100
H1560       H  0.04824069  0.83730351  0.32394887     0.08100
H1561       H  0.05513541  0.79996788  0.28477432     0.11500
H1562       H  0.97244739  0.75766127  0.31008043     0.11800
H1563       H  0.96511223  0.79542497  0.34919538     0.08100
C1564       C  0.00502724  0.87440942  0.34944166    -0.11000
C1565       C  0.00212957  0.89832815  0.36917625    -0.10300
C1566       C  0.99388316  0.89323235  0.39898871    -0.01200
C1567       C  0.98687267  0.86396503  0.40819342    -0.11400
C1568       C  0.98963635  0.84006986  0.38838492    -0.09800
H1569       H  0.01206196  0.87882485  0.32669670     0.08100
H1570       H  0.00743366  0.92061460  0.36137177     0.11800
H1571       H  0.97998022  0.85938421  0.43095102     0.11500
H1572       H  0.98516184  0.81763938  0.39628903     0.08100
C1573       C  0.03351044  0.31846522  0.81852962    -0.11000
C1574       C  0.01044874  0.33962887  0.81823395     0.06100
C1575       C  0.98947945  0.33908346  0.79482177    -0.09800
C1576       C  0.99009954  0.31616315  0.77357107    -0.11400
C1577       C  0.01178008  0.29367760  0.77545399    -0.01200
C1578       C  0.03413142  0.29568248  0.79733912    -0.10300
C1579       C  0.00700022  0.36066597  0.84348346     0.06100
H1580       H  0.97143274  0.35514930  0.79413063     0.08100
H1581       H  0.97236201  0.31473200  0.75719437     0.11500
H1582       H  0.05106141  0.27850264  0.79912027     0.11800
H1583       H  0.05032690  0.31880451  0.83591890     0.08100
C1584       C  0.01031332  0.35064523  0.87312504    -0.11000
C1585       C  0.00648192  0.37029089  0.89708202    -0.10300
C1586       C  0.99939068  0.40035634  0.89180100    -0.01200
C1587       C  0.99577996  0.41020650  0.86209668    -0.11400
C1588       C  0.99950772  0.39057066  0.83823679    -0.09800
H1589       H  0.01557107  0.32749865  0.87778464     0.08100
H1590       H  0.00949407  0.36203628  0.91963898     0.11800
H1591       H  0.99028889  0.43324061  0.85715009     0.11500
H1592       H  0.99691778  0.39886699  0.81564138     0.08100
C1593       C  0.01222726  0.19446871  0.65346370    -0.11000
C1594       C  0.99087965  0.17138740  0.65354035     0.06100
C1595       C  0.96866679  0.17123995  0.67567519    -0.09800
C1596       C  0.96906562  0.19241215  0.69850583    -0.11400
C1597       C  0.99150929  0.21423114  0.69949931    -0.01200
C1598       C  0.01255440  0.21576599  0.67635780    -0.10300
C1599       C  0.99287377  0.14642861  0.63189974     0.06100
H1600       H  0.95160526  0.15408980  0.67590406     0.08100
H1601       H  0.95268470  0.19090179  0.71626726     0.11500
H1602       H  0.03036647  0.23212116  0.67708307     0.11800
H1603       H  0.02968554  0.19500924  0.63672547     0.08100
C1604       C  0.99897398  0.15195189  0.60166688    -0.11000
C1605       C  0.00105756  0.12830916  0.58143493    -0.10300
C1606       C  0.99725470  0.09855025  0.59102203    -0.01200
C1607       C  0.99153949  0.09303978  0.62139293    -0.11400
C1608       C  0.98929784  0.11674072  0.64159352    -0.09800
H1609       H  0.00172479  0.17460064  0.59359717     0.08100
H1610       H  0.00552903  0.13344501  0.55820198     0.11800
H1611       H  0.98849176  0.07045923  0.62953477     0.11500
H1612       H  0.98508590  0.11182352  0.66492319     0.08100
C1613       C  0.02124959  0.65439673  0.79655727    -0.11000
C1614       C  0.99987756  0.65606268  0.81965299     0.06100
C1615       C  0.97841564  0.67888539  0.81878650    -0.09800
C1616       C  0.97988404  0.70097973  0.79697866    -0.11400
C1617       C  0.00242545  0.70040458  0.77527118    -0.01200
C1618       C  0.02242744  0.67642484  0.77440815    -0.10300
C1619       C  0.00066786  0.63507318  0.84529999     0.06100
H1620       H  0.96106376  0.68030331  0.83557523     0.08100
H1621       H  0.96435627  0.71950362  0.79798172     0.11500
H1622       H  0.04029320  0.67599277  0.75809215     0.11800
H1623       H  0.03820785  0.63719183  0.79658093     0.08100
C1624       C  0.00898848  0.60519279  0.84105458    -0.11000
C1625       C  0.00914241  0.58538065  0.86501866    -0.10300
C1626       C  0.00070125  0.59486269  0.89380551    -0.01200
C1627       C  0.99317929  0.62490226  0.89835191    -0.11400
C1628       C  0.99324384  0.64484252  0.87433483    -0.09800
H1629       H  0.01470418  0.59684698  0.81907902     0.08100
H1630       H  0.01549622  0.56241817  0.86081217     0.11800
H1631       H  0.98676744  0.63287655  0.92029121     0.11500
H1632       H  0.98755047  0.66795216  0.87857687     0.08100
C1633       C  0.98947246  0.79860314  0.65600470    -0.11000
C1634       C  0.01035594  0.82193630  0.65317564     0.06100
C1635       C  0.03655043  0.82113890  0.67034390    -0.09800
C1636       C  0.04046465  0.79911708  0.69193054    -0.11400
C1637       C  0.01841268  0.77740604  0.69652939    -0.01200
C1638       C  0.99349381  0.77641824  0.67761924    -0.10300
C1639       C  0.00434146  0.84784390  0.63357666     0.06100
H1640       H  0.05344690  0.83828285  0.66793643     0.08100
H1641       H  0.05986248  0.80009390  0.70635457     0.11500
H1642       H  0.97603807  0.76004227  0.68116826     0.11800
H1643       H  0.96912787  0.79860132  0.64294857     0.08100
C1644       C  0.99192625  0.84361502  0.60517325    -0.11000
C1645       C  0.98795565  0.86781969  0.58605766    -0.10300
C1646       C  0.99643198  0.89679869  0.59485134    -0.01200
C1647       C  0.00728535  0.90134726  0.62391519    -0.11400
C1648       C  0.01125713  0.87703028  0.64310388    -0.09800
H1649       H  0.98627916  0.82145180  0.59729003     0.08100
H1650       H  0.97906193  0.86362711  0.56394049     0.11800
H1651       H  0.01379206  0.92341999  0.63139856     0.11500
H1652       H  0.02010873  0.88099356  0.66527873     0.08100
C1653       C  0.14696532  0.61277679  0.51508042    -0.11000
C1654       C  0.13867563  0.64197759  0.50670371     0.06100
C1655       C  0.11066878  0.64647081  0.49346019    -0.09800
C1656       C  0.09120874  0.62254052  0.48918408    -0.11400
C1657       C  0.09917621  0.59344535  0.49809971    -0.01200
C1658       C  0.12742994  0.58872765  0.51076603    -0.10300
C1659       C  0.15933121  0.66756017  0.51135498     0.06100
H1660       H  0.10348023  0.66862541  0.48695364     0.08100
H1661       H  0.06961957  0.62697703  0.47923952     0.11500
H1662       H  0.13413582  0.56664185  0.51800819     0.11800
H1663       H  0.16864256  0.60847312  0.52485486     0.08100
C1664       C  0.17724938  0.66898078  0.53707430    -0.11000
C1665       C  0.19888329  0.69121719  0.54001385    -0.10300
C1666       C  0.20288115  0.71268171  0.51748275    -0.01200
C1667       C  0.18380222  0.71252453  0.49264933    -0.11400
C1668       C  0.16220485  0.69013605  0.48959122    -0.09800
H1669       H  0.17508457  0.65242770  0.55459603     0.08100
H1670       H  0.21341145  0.69093101  0.55936542     0.11800
H1671       H  0.18690516  0.72843890  0.47467717     0.11500
H1672       H  0.14889673  0.68959486  0.46940525     0.08100
C1673       C  0.88803325  0.34335864  0.48914057    -0.11000
C1674       C  0.85921514  0.34840332  0.50016536     0.06100
C1675       C  0.85007121  0.37790912  0.50612816    -0.09800
C1676       C  0.86973874  0.40181428  0.50209817    -0.11400
C1677       C  0.89894874  0.39661076  0.49213375    -0.01200
C1678       C  0.90767086  0.36717990  0.48515229    -0.10300
C1679       C  0.83868797  0.32306802  0.50565189     0.06100
H1680       H  0.82770672  0.38249190  0.51408041     0.08100
H1681       H  0.86239619  0.42416981  0.50770108     0.11500
H1682       H  0.93000545  0.36239255  0.47721665     0.11800
H1683       H  0.89569670  0.32090760  0.48442119     0.08100
C1684       C  0.83609169  0.29948995  0.48497192    -0.11000
C1685       C  0.81396920  0.27768655  0.48860532    -0.10300
C1686       C  0.79439801  0.27920142  0.51303010    -0.01200
C1687       C  0.79846297  0.30144399  0.53470776    -0.11400
C1688       C  0.82042764  0.32311171  0.53112341    -0.09800
H1689       H  0.84992006  0.29891846  0.46512339     0.08100
H1690       H  0.81083156  0.26100183  0.47135666     0.11800
H1691       H  0.78353733  0.30293651  0.55371200     0.11500
H1692       H  0.82247634  0.34050883  0.54782018     0.08100
C1693       C  0.15089695  0.29162216  0.49326713    -0.11000
C1694       C  0.15272091  0.31500328  0.51426203     0.06100
C1695       C  0.17698831  0.31581880  0.53402890    -0.09800
C1696       C  0.20035193  0.29548646  0.53105875    -0.11400
C1697       C  0.19988089  0.27384927  0.50840008    -0.01200
C1698       C  0.17446249  0.27118587  0.49025115    -0.10300
C1699       C  0.13174578  0.34060979  0.51300588     0.06100
H1700       H  0.17866459  0.33328592  0.55069783     0.08100
H1701       H  0.21975431  0.29780770  0.54532098     0.11500
H1702       H  0.17382737  0.25488280  0.47237240     0.11800
H1703       H  0.13238776  0.29055645  0.47773616     0.08100
C1704       C  0.14292493  0.36996283  0.51147771    -0.11000
C1705       C  0.12365000  0.39430655  0.50784089    -0.10300
C1706       C  0.09268047  0.38985772  0.50583272    -0.01200
C1707       C  0.08152870  0.36041870  0.50829372    -0.11400
C1708       C  0.10084338  0.33609180  0.51162595    -0.09800
H1709       H  0.16675221  0.37400404  0.51220107     0.08100
H1710       H  0.13305720  0.41653351  0.50623044     0.11800
H1711       H  0.05778453  0.35601292  0.50729001     0.11500
H1712       H  0.09166823  0.31373594  0.51297880     0.08100
C1713       C  0.89305895  0.65349892  0.49149440    -0.11000
C1714       C  0.86392364  0.64841292  0.48109864     0.06100
C1715       C  0.85513172  0.61890231  0.47471785    -0.09800
C1716       C  0.87498408  0.59505537  0.47846905    -0.11400
C1717       C  0.90428833  0.60009370  0.48844247    -0.01200
C1718       C  0.91306506  0.62966732  0.49493339    -0.10300
C1719       C  0.84237131  0.67347291  0.47733632     0.06100
H1720       H  0.83267692  0.61418562  0.46710529     0.08100
H1721       H  0.86747089  0.57269238  0.47311268     0.11500
H1722       H  0.93546523  0.63445325  0.50266673     0.11800
H1723       H  0.90051134  0.67596521  0.49651658     0.08100
C1724       C  0.83901457  0.69549414  0.49957825    -0.11000
C1725       C  0.81585462  0.71651538  0.49777650    -0.10300
C1726       C  0.79579390  0.71582926  0.47370053    -0.01200
C1727       C  0.80029622  0.69511411  0.45062328    -0.11400
C1728       C  0.82341529  0.67426976  0.45232302    -0.09800
H1729       H  0.85315064  0.69534160  0.51920456     0.08100
H1730       H  0.81234877  0.73186827  0.51615855     0.11800
H1731       H  0.78491319  0.69410065  0.43196768     0.11500
H1732       H  0.82578271  0.65799810  0.43456862     0.08100
C1733       C  0.10918531  0.50060454  0.34126161    -0.11000
C1734       C  0.13889587  0.49219391  0.34605342     0.06100
C1735       C  0.14861404  0.48661024  0.37547771    -0.09800
C1736       C  0.12868598  0.48831154  0.39951569    -0.11400
C1737       C  0.09861838  0.49547874  0.39453489    -0.01200
C1738       C  0.08928877  0.50220791  0.36517828    -0.10300
C1739       C  0.15954577  0.48847152  0.32043159     0.06100
H1740       H  0.17163022  0.48068623  0.37986480     0.08100
H1741       H  0.13663076  0.48324699  0.42180544     0.11500
H1742       H  0.06635365  0.50822371  0.36048127     0.11800
H1743       H  0.10107285  0.50502313  0.31888909     0.08100
C1744       C  0.17921610  0.46410796  0.31978344    -0.11000
C1745       C  0.20065634  0.46182828  0.29737355    -0.10300
C1746       C  0.20276665  0.48372548  0.27506606    -0.01200
C1747       C  0.18196258  0.50708033  0.27438484    -0.11400
C1748       C  0.16039914  0.50942819  0.29694647    -0.09800
H1749       H  0.17861379  0.44726894  0.33715981     0.08100
H1750       H  0.21682479  0.44386520  0.29842413     0.11800
H1751       H  0.18380429  0.52461645  0.25779269     0.11500
H1752       H  0.14551802  0.52847861  0.29693984     0.08100
C1753       C  0.89361332  0.49168320  0.33651634    -0.11000
C1754       C  0.86477575  0.50316614  0.34072088     0.06100
C1755       C  0.85577185  0.51130272  0.36977291    -0.09800
C1756       C  0.87536254  0.50881884  0.39391474    -0.11400
C1757       C  0.90442766  0.49806955  0.38960276    -0.01200
C1758       C  0.91326539  0.48928254  0.36066465    -0.10300
C1759       C  0.84375153  0.50644213  0.31525162     0.06100
H1760       H  0.83341879  0.51948773  0.37393071     0.08100
H1761       H  0.86788608  0.51577843  0.41586049     0.11500
H1762       H  0.93548891  0.48067004  0.35660791     0.11800
H1763       H  0.90121609  0.48516685  0.31448280     0.08100
C1764       C  0.82413801  0.53091419  0.31431688    -0.11000
C1765       C  0.80070725  0.53154935  0.29387036    -0.10300
C1766       C  0.79681015  0.50807475  0.27357265    -0.01200
C1767       C  0.81803014  0.48510391  0.27227998    -0.11400
C1768       C  0.84135932  0.48421147  0.29309279    -0.09800
H1769       H  0.82601259  0.54889390  0.33039753     0.08100
H1770       H  0.78452901  0.54948940  0.29506527     0.11800
H1771       H  0.81512243  0.46662996  0.25691191     0.11500
H1772       H  0.85615554  0.46510111  0.29313310     0.08100
C1773       C  0.10471234  0.49596068  0.65113912    -0.11000
C1774       C  0.13348283  0.48466808  0.64610161     0.06100
C1775       C  0.14214576  0.47730760  0.61680897    -0.09800
C1776       C  0.12229513  0.48055328  0.59307358    -0.11400
C1777       C  0.09330506  0.49115877  0.59811843    -0.01200
C1778       C  0.08475392  0.49908803  0.62737470    -0.10300
C1779       C  0.15488227  0.48101666  0.67097732     0.06100
H1780       H  0.16443738  0.46920110  0.61217225     0.08100
H1781       H  0.12950440  0.47422638  0.57084963     0.11500
H1782       H  0.06256550  0.50753087  0.63195591     0.11800
H1783       H  0.09748074  0.50183236  0.67348484     0.08100
C1784       C  0.15810877  0.50338215  0.69280804    -0.11000
C1785       C  0.18124603  0.50176272  0.71365616    -0.10300
C1786       C  0.20134116  0.47779847  0.71286914    -0.01200
C1787       C  0.19711291  0.45464148  0.69226200    -0.11400
C1788       C  0.17390184  0.45608906  0.67165223    -0.09800
H1789       H  0.14390989  0.52294536  0.69265007     0.08100
H1790       H  0.18462653  0.52013204  0.72904885     0.11800
H1791       H  0.21256308  0.43605177  0.69134049     0.11500
H1792       H  0.17149618  0.43822775  0.65550265     0.08100
C1793       C  0.88991395  0.50053087  0.64715178    -0.11000
C1794       C  0.85969391  0.50625063  0.64187799     0.06100
C1795       C  0.84952823  0.50894337  0.61220997    -0.09800
C1796       C  0.86938771  0.50620781  0.58820976    -0.11400
C1797       C  0.89979032  0.50091412  0.59352545    -0.01200
C1798       C  0.90971671  0.49793047  0.62331675    -0.10300
C1799       C  0.83863377  0.50876243  0.66719700     0.06100
H1800       H  0.82613004  0.51286683  0.60759149     0.08100
H1801       H  0.86101433  0.50852337  0.56562365     0.11500
H1802       H  0.93296161  0.49370465  0.62840792     0.11800
H1803       H  0.89831034  0.49845268  0.66976247     0.08100
C1804       C  0.83891804  0.48767350  0.69054269    -0.11000
C1805       C  0.81622099  0.48758147  0.71203827    -0.10300
C1806       C  0.79318252  0.50870087  0.71048138    -0.01200
C1807       C  0.79437071  0.53120759  0.68866028    -0.11400
C1808       C  0.81687787  0.53124219  0.66719232    -0.09800
H1809       H  0.85552667  0.47011320  0.69102738     0.08100
H1810       H  0.81544066  0.46973891  0.72837400     0.11800
H1811       H  0.77679653  0.54775383  0.68716482     0.11500
H1812       H  0.81661336  0.54814446  0.64986310     0.08100
C1813       C  0.00511124  0.60843360  0.34185568    -0.11000
C1814       C  0.00808354  0.63860609  0.34991791     0.06100
C1815       C  0.01041137  0.64609815  0.38029044    -0.09800
C1816       C  0.00923236  0.62390841  0.40224669    -0.11400
C1817       C  0.00604044  0.59364320  0.39429613    -0.01200
C1818       C  0.00427389  0.58615570  0.36378732    -0.10300
C1819       C  0.00822852  0.66230794  0.32676417     0.06100
H1820       H  0.01254279  0.66923100  0.38706410     0.08100
H1821       H  0.01072438  0.63054908  0.42547679     0.11500
H1822       H  0.00193818  0.56310867  0.35680948     0.11800
H1823       H  0.00356341  0.60210586  0.31853785     0.08100
C1824       C  0.03031899  0.68456573  0.32687814    -0.11000
C1825       C  0.03030959  0.70698898  0.30509072    -0.10300
C1826       C  0.00799601  0.70786969  0.28298573    -0.01200
C1827       C  0.98568349  0.68583122  0.28316790    -0.11400
C1828       C  0.98595612  0.66310484  0.30467334    -0.09800
H1829       H  0.04780738  0.68435262  0.34359423     0.08100
H1830       H  0.04790242  0.72357252  0.30531508     0.11800
H1831       H  0.96790493  0.68636411  0.26681508     0.11500
H1832       H  0.96843373  0.64642893  0.30441421     0.08100
C1833       C  0.99726360  0.38083732  0.64573823    -0.11000
C1834       C  0.99493008  0.35054054  0.63791121     0.06100
C1835       C  0.99111346  0.34295780  0.60768004    -0.09800
C1836       C  0.99047853  0.36520258  0.58565749    -0.11400
C1837       C  0.99336282  0.39558721  0.59340407    -0.01200
C1838       C  0.99632745  0.40309846  0.62380200    -0.10300
C1839       C  0.99682458  0.32702562  0.66129381     0.06100
H1840       H  0.98932593  0.31976324  0.60101863     0.08100
H1841       H  0.98803955  0.35851972  0.56252084     0.11500
H1842       H  0.99843151  0.42619258  0.63068456     0.11800
H1843       H  0.99977402  0.38731054  0.66893032     0.08100
C1844       C  0.01931052  0.32815868  0.68317089    -0.11000
C1845       C  0.02088852  0.30637128  0.70555700    -0.10300
C1846       C  0.99972802  0.28322725  0.70688592    -0.01200
C1847       C  0.97723419  0.28212260  0.68497261    -0.11400
C1848       C  0.97598991  0.30358443  0.66223047    -0.09800
H1849       H  0.03590577  0.34575678  0.68272668     0.08100
H1850       H  0.03880115  0.30747940  0.72173618     0.11800
H1851       H  0.96033710  0.26485879  0.68567602     0.11500
H1852       H  0.95829071  0.30230241  0.64579527     0.08100
C1853       C  0.00441111  0.64867358  0.60638921    -0.11000
C1854       C  0.00436006  0.64137553  0.63692432     0.06100
C1855       C  0.00369818  0.61113656  0.64525917    -0.09800
C1856       C  0.00292941  0.58859656  0.62354070    -0.11400
C1857       C  0.00241948  0.59577532  0.59289927    -0.01200
C1858       C  0.00329650  0.62616941  0.58463650    -0.10300
C1859       C  0.00549802  0.66512747  0.66011793     0.06100
H1860       H  0.00411892  0.60494421  0.66866295     0.08100
H1861       H  0.00262167  0.56552912  0.63081778     0.11500
H1862       H  0.00304324  0.63265585  0.56131565     0.11800
H1863       H  0.00491728  0.67183264  0.59937591     0.08100
C1864       C  0.02762658  0.68731035  0.65902929    -0.11000
C1865       C  0.02969527  0.70877761  0.68167674    -0.10300
C1866       C  0.00932182  0.70897587  0.70561756    -0.01200
C1867       C  0.98679723  0.68711693  0.70638326    -0.11400
C1868       C  0.98504419  0.66527954  0.68397280    -0.09800
H1869       H  0.04381350  0.68754766  0.64103906     0.08100
H1870       H  0.04752160  0.72507437  0.68071039     0.11800
H1871       H  0.97043490  0.68705799  0.72417890     0.11500
H1872       H  0.96757356  0.64858522  0.68512463     0.08100
C1873       C  0.99696026  0.34709873  0.11223881    -0.11000
C1874       C  0.99809372  0.35663736  0.14217132     0.06100
C1875       C  0.00070795  0.38719204  0.14835467    -0.09800
C1876       C  0.00130001  0.40793511  0.12507250    -0.11400
C1877       C  0.99946459  0.39854754  0.09502851    -0.01200
C1878       C  0.99776232  0.36783221  0.08888082    -0.10300
C1879       C  0.99631865  0.33466522  0.16680426     0.06100
H1880       H  0.00160940  0.39507024  0.17123215     0.08100
H1881       H  0.00287801  0.43140302  0.13073284     0.11500
H1882       H  0.99659692  0.35981150  0.06607489     0.11800
H1883       H  0.99547766  0.32353897  0.10692647     0.08100
C1884       C  0.97489476  0.31182939  0.16582400    -0.11000
C1885       C  0.97496084  0.28929427  0.18730733    -0.10300
C1886       C  0.99635539  0.28922085  0.21020687    -0.01200
C1887       C  0.01675459  0.31287703  0.21228348    -0.11400
C1888       C  0.01667629  0.33556162  0.19072996    -0.09800
H1889       H  0.95865403  0.31095246  0.14791064     0.08100
H1890       H  0.95921175  0.27103220  0.18522975     0.11800
H1891       H  0.03389599  0.31277183  0.22934888     0.11500
H1892       H  0.03349060  0.35291413  0.19185215     0.08100
C1893       C  0.01437050  0.11485454  0.34744849    -0.11000
C1894       C  0.00561576  0.14386885  0.35610893     0.06100
C1895       C  0.99285552  0.14791791  0.38445210    -0.09800
C1896       C  0.98978823  0.12383853  0.40397747    -0.11400
C1897       C  0.99940225  0.09507897  0.39571391    -0.01200
C1898       C  0.01134535  0.09070193  0.36707212    -0.10300
C1899       C  0.00971012  0.16963599  0.33551333     0.06100
H1900       H  0.98593979  0.16984189  0.39193240     0.08100
H1901       H  0.98021637  0.12788041  0.42584545     0.11500
H1902       H  0.01896834  0.06882450  0.36010171     0.11800
H1903       H  0.02355228  0.11074999  0.32544282     0.08100
C1904       C  0.03449236  0.17055305  0.31630017    -0.11000
C1905       C  0.03628727  0.19200425  0.29383347    -0.10300
C1906       C  0.01363916  0.21330243  0.29037234    -0.01200
C1907       C  0.99029961  0.21439290  0.31121789    -0.11400
C1908       C  0.98828562  0.19263526  0.33363696    -0.09800
H1909       H  0.05197472  0.15394089  0.31783148     0.08100
H1910       H  0.05455400  0.19092396  0.27799204     0.11800
H1911       H  0.97241029  0.23045973  0.30868550     0.11500
H1912       H  0.96893080  0.19271544  0.34812109     0.08100
C1913       C  0.97880329  0.32523600  0.30190845    -0.11000
C1914       C  0.00021633  0.32635364  0.32498836     0.06100
C1915       C  0.02318599  0.30489732  0.32490761    -0.09800
C1916       C  0.02459519  0.28293306  0.30268268    -0.11400
C1917       C  0.00310670  0.28167946  0.27987638    -0.01200
C1918       C  0.98024285  0.30316325  0.27963658    -0.10300
C1919       C  0.99885697  0.34973835  0.34897157     0.06100
H1920       H  0.04047709  0.30532970  0.34179074     0.08100
H1921       H  0.04277809  0.26703220  0.30309518     0.11500
H1922       H  0.96320515  0.30254745  0.26249842     0.11800
H1923       H  0.96057148  0.34107858  0.30134224     0.08100
C1924       C  0.98954759  0.37908243  0.34251608    -0.11000
C1925       C  0.98923052  0.40113337  0.36481842    -0.10300
C1926       C  0.99801998  0.39445647  0.39428571    -0.01200
C1927       C  0.00686584  0.36503672  0.40087735    -0.11400
C1928       C  0.00735795  0.34304498  0.37855344    -0.09800
H1929       H  0.98311206  0.38525340  0.32002777     0.08100
H1930       H  0.98208906  0.42348528  0.35894113     0.11800
H1931       H  0.01379372  0.35904039  0.42328016     0.11500
H1932       H  0.01419544  0.32065703  0.38460113     0.08100
loop_ 
_geom_bond_atom_site_label_1 
_geom_bond_atom_site_label_2 
_geom_bond_distance 
_geom_bond_site_symmetry_2 
_ccdc_geom_bond_type 
N1            C5   1.361       .  A
N1            C2   1.360       .  A
N1         C1917   1.448       .  S
C2            C3   1.381       .  A
C2         C1906   1.474       .  S
C3            C4   1.367       .  A
C3            H6   1.082       .  S
C4            C5   1.382       .  A
C4            H7   1.083       .  S
C5         C1886   1.472   1_455  S
O8          Zr44   2.451       .  S
O8           C19   1.294       .  A
O9          Zr43   2.433       .  S
O9           C20   1.292       .  A
O10         Zr16   2.415   1_655  S
O10          C21   1.288       .  A
O11         Zr16   2.408       .  S
O11          C22   1.287       .  A
O12         Zr46   2.465       .  S
O12          C22   1.298       .  A
O13         Zr45   2.462       .  S
O13          C21   1.298       .  A
O14         Zr16   2.440       .  S
O14          C20   1.293       .  A
O15         Zr16   2.451   1_655  S
O15          C19   1.294       .  A
Zr16         O17   2.336       .  S
Zr16         O18   2.331   1_455  S
Zr16         O26   2.343       .  S
Zr16         O24   2.340   1_455  S
O17         Zr43   2.338       .  S
O17         Zr46   2.347       .  S
O18         Zr44   2.335       .  S
O18         Zr45   2.351       .  S
C19        C1926   1.493       .  S
C20        C1817   1.485       .  S
C21        C1757   1.481       .  S
C22        C1737   1.482       .  S
H23          O24   0.965       .  S
O24         Zr43   2.336   1_655  S
O24         Zr45   2.343       .  S
H25          O26   0.966       .  S
O26         Zr44   2.337   1_455  S
O26         Zr46   2.353       .  S
O27         Zr43   2.440       .  S
O27          C50   1.292       .  A
O28         Zr44   2.438       .  S
O28          C51   1.292       .  A
O29         Zr45   2.468       .  S
O29          C52   1.299       .  A
O30         Zr46   2.462       .  S
O30          C53   1.297       .  A
O31         Zr46   2.472       .  S
O31          C54   1.299       .  A
O32         Zr45   2.460       .  S
O32          C55   1.297       .  A
O33         Zr47   2.401       .  S
O33          C56   1.286       .  A
O34         Zr47   2.410   1_455  S
O34          C57   1.287       .  A
O35         Zr45   2.465       .  S
O35          C56   1.298       .  A
O36         Zr46   2.456       .  S
O36          C57   1.296       .  A
O37         Zr43   2.431   1_655  S
O37          C52   1.291       .  A
O38         Zr44   2.407       .  S
O38          C55   1.287       .  A
O39         Zr44   2.419   1_455  S
O39          C54   1.289       .  A
O40         Zr43   2.414       .  S
O40          C53   1.289       .  A
O41         Zr47   2.455       .  S
O41          C50   1.295   1_655  A
O42         Zr47   2.450       .  S
O42          C51   1.295       .  A
Zr43         O49   2.335   1_455  S
Zr43         O61   2.337       .  S
Zr44         O48   2.334   1_655  S
Zr44         O59   2.345       .  S
Zr45         O49   2.349       .  S
Zr45         O59   2.350       .  S
Zr46         O48   2.341       .  S
Zr46         O61   2.349       .  S
Zr47         O48   2.336   1_655  S
Zr47         O49   2.338       .  S
Zr47         O61   2.332   1_655  S
Zr47         O59   2.339       .  S
C50        C1857   1.493       .  S
C51        C1837   1.489       .  S
C52        C1717   1.491       .  S
C53        C1657   1.481       .  S
C54        C1706   1.491       .  S
C55        C1677   1.478       .  S
C56        C1797   1.481       .  S
C57        C1777   1.476       .  S
H58          O59   0.966       .  S
H60          O61   0.965       .  S
N62          C66   1.358       .  A
N62          C63   1.359       .  A
N62        C1866   1.448       .  S
C63          C64   1.381       .  A
C63        C1617   1.467       .  S
C64          C65   1.366       .  A
C64          H67   1.082       .  S
C65          C66   1.381       .  A
C65          H68   1.082       .  S
C66        C1637   1.469       .  S
N69          C73   1.361       .  A
N69          C70   1.360   1_455  A
N69        C1846   1.448   1_455  S
C70          C71   1.380       .  A
C70        C1597   1.472       .  S
C71          C72   1.367   1_655  A
C71          H74   1.082       .  S
C72          C73   1.382       .  A
C72          H75   1.082       .  S
C73        C1577   1.474       .  S
N76          C80   1.359       .  A
N76          C77   1.362       .  A
N76        C1826   1.446       .  S
C77          C78   1.384       .  A
C77        C1546   1.480   1_455  S
C78          C79   1.366       .  A
C78          H81   1.082       .  S
C79          C80   1.379       .  A
C79          H82   1.083       .  S
C80        C1557   1.470       .  S
O83        Zr119   2.454   1_545  S
O83          C94   1.296       .  A
O84        Zr118   2.455   1_545  S
O84          C95   1.296       .  A
O85         Zr91   2.452       .  S
O85          C96   1.295       .  A
O86         Zr91   2.440   1_455  S
O86          C97   1.293       .  A
O87        Zr121   2.440   1_545  S
O87          C97   1.293       .  A
O88        Zr120   2.452   1_545  S
O88          C96   1.295       .  A
O89         Zr91   2.416       .  S
O89          C95   1.289       .  A
O90         Zr91   2.416       .  S
O90          C94   1.289       .  A
Zr91         O92   2.337   1_655  S
Zr91         O93   2.334       .  S
Zr91        O101   2.340   1_655  S
Zr91         O99   2.337       .  S
O92        Zr118   2.339   1_445  S
O92        Zr121   2.339   1_545  S
O93        Zr119   2.344   1_545  S
O93        Zr120   2.337   1_545  S
C94        C1897   1.478       .  S
C95        C1606   1.482       .  S
C96        C1506   1.496       .  S
C97        C1517   1.483       .  S
H98          O99   0.966       .  S
O99        Zr118   2.346   1_545  S
O99        Zr120   2.338   1_545  S
H100        O101   0.966       .  S
O101       Zr119   2.343   1_445  S
O101       Zr121   2.340   1_545  S
O102       Zr118   2.444       .  S
O102        C125   1.294       .  A
O103       Zr119   2.446       .  S
O103        C126   1.295       .  A
O104       Zr120   2.412       .  S
O104        C127   1.289       .  A
O105       Zr121   2.417       .  S
O105        C128   1.289       .  A
O106       Zr121   2.412       .  S
O106        C129   1.288       .  A
O107       Zr120   2.417       .  S
O107        C130   1.289       .  A
O108       Zr122   2.428       .  S
O108        C131   1.291       .  A
O109       Zr122   2.449   1_455  S
O109        C132   1.294       .  A
O110       Zr120   2.452       .  S
O110        C131   1.295       .  A
O111       Zr121   2.450       .  S
O111        C132   1.294       .  A
O112       Zr118   2.442       .  S
O112        C127   1.293       .  A
O113       Zr119   2.456       .  S
O113        C130   1.296       .  A
O114       Zr119   2.451   1_455  S
O114        C129   1.295       .  A
O115       Zr118   2.449   1_455  S
O115        C128   1.295       .  A
O116       Zr122   2.417       .  S
O116        C125   1.289       .  A
O117       Zr122   2.413       .  S
O117        C126   1.288       .  A
Zr118       O124   2.342       .  S
Zr118       O136   2.350   1_655  S
Zr119       O123   2.347   1_655  S
Zr119       O134   2.343       .  S
Zr120       O124   2.334       .  S
Zr120       O134   2.335       .  S
Zr121       O123   2.332       .  S
Zr121       O136   2.334       .  S
Zr122       O123   2.331   1_655  S
Zr122       O124   2.332       .  S
Zr122       O136   2.336   1_655  S
Zr122       O134   2.342       .  S
C125       C1646   1.476       .  S
C126       C1566   1.474       .  S
C127       C1377   1.473       .  S
C128       C1397   1.481       .  S
C129       C1426   1.477       .  S
C130       C1437   1.483       .  S
C131       C1477   1.481       .  S
C132       C1457   1.495       .  S
H133        O134   0.966       .  S
H135        O136   0.965       .  S
N137        C141   1.356       .  A
N137        C138   1.356       .  A
N137       C1526   1.437       .  S
C138        C139   1.383       .  A
C138       C1697   1.477       .  S
C139        C140   1.372       .  A
C139        H142   1.082       .  S
C140        C141   1.381       .  A
C140        H143   1.082       .  S
C141       C1357   1.476       .  S
N144        C148   1.361       .  A
N144        C145   1.361       .  A
N144       C1497   1.451       .  S
C145        C146   1.382       .  A
C145       C1686   1.472       .  S
C146        C147   1.364       .  A
C146        H149   1.083       .  S
C147        C148   1.381       .  A
C147        H150   1.083       .  S
C148       C1337   1.468       .  S
N151        C155   1.359       .  A
N151        C152   1.357       .  A
N151       C1486   1.441       .  S
C152        C153   1.381       .  A
C152       C1317   1.475       .  S
C153        C154   1.372       .  A
C153        H156   1.082       .  S
C154        C155   1.382       .  A
C154        H157   1.082       .  S
C155       C1726   1.478       .  S
N158        C162   1.360       .  A
N158        C159   1.362       .  A
N158       C1466   1.448       .  S
C159        C160   1.382       .  A
C159       C1666   1.478       .  S
C160        C161   1.368       .  A
C160        H163   1.082       .  S
C161        C162   1.380       .  A
C161        H164   1.082       .  S
C162       C1297   1.472       .  S
N165        C169   1.363       .  A
N165        C166   1.362       .  A
N165       C1277   1.451       .  S
C166        C167   1.381       .  A
C166       C1446   1.472       .  S
C167        C168   1.364       .  A
C167        H170   1.083       .  S
C168        C169   1.382       .  A
C168        H171   1.083       .  S
C169       C1257   1.474       .  S
O172       Zr208   2.463       .  S
O172        C183   1.298       .  A
O173       Zr207   2.469       .  S
O173        C184   1.298       .  A
O174       Zr180   2.456       .  S
O174        C185   1.296       .  A
O175       Zr180   2.465       .  S
O175        C186   1.297       .  A
O176       Zr210   2.437       .  S
O176        C186   1.292       .  A
O177       Zr209   2.464       .  S
O177        C185   1.297       .  A
O178       Zr180   2.404       .  S
O178        C184   1.287       .  A
O179       Zr180   2.404   1_545  S
O179        C183   1.287       .  A
Zr180       O181   2.331       .  S
Zr180       O182   2.336   1_565  S
Zr180       O190   2.332   1_565  S
Zr180       O188   2.341       .  S
O181       Zr207   2.345       .  S
O181       Zr210   2.339       .  S
O182       Zr208   2.342       .  S
O182       Zr209   2.335   1_545  S
C183       C1366   1.481       .  S
C184       C1306   1.485       .  S
C185       C1206   1.500       .  S
C186       C1246   1.494       .  S
H187        O188   0.966       .  S
O188       Zr207   2.351       .  S
O188       Zr209   2.345       .  S
H189        O190   0.965       .  S
O190       Zr208   2.348       .  S
O190       Zr210   2.339   1_545  S
O191       Zr207   2.466       .  S
O191        C214   1.298       .  A
O192       Zr208   2.464       .  S
O192        C215   1.298       .  A
O193       Zr209   2.416       .  S
O193        C216   1.289       .  A
O194       Zr210   2.418       .  S
O194        C217   1.289       .  A
O195       Zr210   2.422   1_545  S
O195        C218   1.290       .  A
O196       Zr209   2.420   1_545  S
O196        C219   1.290       .  A
O197       Zr211   2.440       .  S
O197        C220   1.292       .  A
O198       Zr211   2.442       .  S
O198        C221   1.293       .  A
O199       Zr209   2.465       .  S
O199        C220   1.297       .  A
O200       Zr210   2.457       .  S
O200        C221   1.296       .  A
O201       Zr207   2.458       .  S
O201        C216   1.297       .  A
O202       Zr208   2.458       .  S
O202        C219   1.297       .  A
O203       Zr208   2.449       .  S
O203        C218   1.295       .  A
O204       Zr207   2.455       .  S
O204        C217   1.296       .  A
O205       Zr211   2.412       .  S
O205        C214   1.288       .  A
O206       Zr211   2.407   1_545  S
O206        C215   1.287       .  A
Zr207       O213   2.346       .  S
Zr207       O225   2.351       .  S
Zr208       O212   2.353       .  S
Zr208       O223   2.351       .  S
Zr209       O213   2.338       .  S
Zr209       O223   2.342   1_565  S
Zr210       O212   2.339   1_565  S
Zr210       O225   2.337       .  S
Zr211       O212   2.338   1_565  S
Zr211       O213   2.335       .  S
Zr211       O225   2.337       .  S
Zr211       O223   2.344   1_565  S
C214       C1326   1.485       .  S
C215       C1346   1.483       .  S
C216       C1137   1.481       .  S
C217       C1177   1.483       .  S
C218       C1157   1.474       .  S
C219       C1126   1.485       .  S
C220       C1286   1.494       .  S
C221       C1226   1.495       .  S
H222        O223   0.967       .  S
H224        O225   0.965       .  S
N226        C230   1.362   1_565  A
N226        C227   1.361       .  A
N226       C1237   1.450       .  S
C227        C228   1.381       .  A
C227       C1097   1.474       .  S
C228        C229   1.367       .  A
C228        H231   1.082       .  S
C229        C230   1.382   1_565  A
C229        H232   1.083   1_565  S
C230       C1406   1.474       .  S
N233        C237   1.362       .  A
N233        C234   1.361       .  A
N233       C1217   1.454       .  S
C234        C235   1.381       .  A
C234       C1386   1.467       .  S
C235        C236   1.362       .  A
C235        H238   1.083       .  S
C236        C237   1.381       .  A
C236        H239   1.083       .  S
C237       C1077   1.467       .  S
N240        C244   1.362   1_545  A
N240        C241   1.361       .  A
N240       C1197   1.451       .  S
C241        C242   1.381       .  A
C241       C1066   1.470       .  S
C242        C243   1.364   1_545  A
C242        H245   1.083       .  S
C243        C244   1.381       .  A
C243        H246   1.083       .  S
C244       C1417   1.470       .  S
O247       Zr283   2.454   1_554  S
O247        C258   1.296       .  A
O248       Zr282   2.458   1_554  S
O248        C259   1.297       .  A
O249       Zr255   2.463   1_545  S
O249        C260   1.297       .  A
O250       Zr255   2.457       .  S
O250        C261   1.296       .  A
O251       Zr285   2.447   1_554  S
O251        C261   1.294       .  A
O252       Zr284   2.445   1_554  S
O252        C260   1.293       .  A
O253       Zr255   2.415       .  S
O253        C259   1.289       .  A
O254       Zr255   2.415       .  S
O254        C258   1.289       .  A
Zr255       O256   2.339       .  S
Zr255       O257   2.339   1_565  S
Zr255       O265   2.339       .  S
Zr255       O263   2.337   1_565  S
O256       Zr282   2.346   1_554  S
O256       Zr285   2.338   1_554  S
O257       Zr283   2.347   1_544  S
O257       Zr284   2.337   1_554  S
C258       C1266   1.480       .  S
C259       C1057   1.483       .  S
C260       C1037   1.497       .  S
C261       C1017   1.496       .  S
H262        O263   0.966       .  S
O263       Zr282   2.347   1_544  S
O263       Zr284   2.334   1_554  S
H264        O265   0.965       .  S
O265       Zr283   2.350   1_554  S
O265       Zr285   2.340   1_554  S
O266       Zr282   2.461       .  S
O266        C289   1.297       .  A
O267       Zr283   2.452       .  S
O267        C290   1.296       .  A
O268       Zr284   2.409       .  S
O268        C291   1.287       .  A
O269       Zr285   2.422       .  S
O269        C292   1.290       .  A
O270       Zr285   2.406       .  S
O270        C293   1.287       .  A
O271       Zr284   2.415       .  S
O271        C294   1.289       .  A
O272       Zr286   2.440   1_545  S
O272        C295   1.293       .  A
O273       Zr286   2.447       .  S
O273        C296   1.294       .  A
O274       Zr284   2.441       .  S
O274        C295   1.293       .  A
O275       Zr285   2.452       .  S
O275        C296   1.295       .  A
O276       Zr282   2.455   1_545  S
O276        C291   1.296       .  A
O277       Zr283   2.467   1_545  S
O277        C294   1.298       .  A
O278       Zr283   2.460       .  S
O278        C293   1.297       .  A
O279       Zr282   2.445       .  S
O279        C292   1.294       .  A
O280       Zr286   2.410       .  S
O280        C289   1.288       .  A
O281       Zr286   2.418       .  S
O281        C290   1.289       .  A
Zr282       O288   2.342   1_565  S
Zr282       O300   2.350       .  S
Zr283       O287   2.347       .  S
Zr283       O298   2.348   1_565  S
Zr284       O288   2.336       .  S
Zr284       O298   2.337       .  S
Zr285       O287   2.338       .  S
Zr285       O300   2.332       .  S
Zr286       O287   2.332       .  S
Zr286       O288   2.336   1_565  S
Zr286       O300   2.336       .  S
Zr286       O298   2.339   1_565  S
C289       C1106   1.482       .  S
C290       C1086   1.481       .  S
C291        C957   1.481       .  S
C292        C917   1.479       .  S
C293        C937   1.480       .  S
C294        C897   1.482       .  S
C295        C977   1.486       .  S
C296        C997   1.491       .  S
H297        O298   0.966       .  S
H299        O300   0.966       .  S
N301        C305   1.362       .  A
N301        C302   1.362       .  A
N301       C1046   1.452       .  S
C302        C303   1.382       .  A
C302       C1117   1.474       .  S
C303        C304   1.364       .  A
C303        H306   1.083       .  S
C304        C305   1.381       .  A
C304        H307   1.083       .  S
C305        C877   1.471       .  S
N308        C312   1.361       .  A
N308        C309   1.359       .  A
N308       C1026   1.450       .  S
C309        C310   1.380       .  A
C309        C857   1.467       .  S
C310        C311   1.365       .  A
C310        H313   1.083       .  S
C311        C312   1.383       .  A
C311        H314   1.082       .  S
C312       C1146   1.473       .  S
N315        C319   1.360       .  A
N315        C316   1.360       .  A
N315       C1006   1.449       .  S
C316        C317   1.382       .  A
C316        C837   1.474       .  S
C317        C318   1.366       .  A
C317        H320   1.082       .  S
C318        C319   1.381       .  A
C318        H321   1.082       .  S
C319       C1186   1.471       .  S
N322        C326   1.357       .  A
N322        C323   1.359       .  A
N322        C986   1.444       .  S
C323        C324   1.381       .  A
C323       C1166   1.472       .  S
C324        C325   1.369       .  A
C324        H327   1.082       .  S
C325        C326   1.380       .  A
C325        H328   1.082       .  S
C326        C817   1.467       .  S
O329       Zr365   2.460   1_554  S
O329        C340   1.297       .  A
O330       Zr364   2.454   1_554  S
O330        C341   1.296       .  A
O331       Zr337   2.458   1_455  S
O331        C342   1.296       .  A
O332       Zr337   2.445       .  S
O332        C343   1.294       .  A
O333       Zr367   2.439   1_554  S
O333        C343   1.293       .  A
O334       Zr366   2.441   1_554  S
O334        C342   1.293       .  A
O335       Zr337   2.423       .  S
O335        C341   1.290       .  A
O336       Zr337   2.411       .  S
O336        C340   1.288       .  A
Zr337       O338   2.332       .  S
Zr337       O339   2.336   1_655  S
Zr337       O347   2.345       .  S
Zr337       O345   2.335   1_655  S
O338       Zr364   2.339   1_554  S
O338       Zr367   2.338   1_554  S
O339       Zr365   2.343   1_454  S
O339       Zr366   2.335   1_554  S
C340       C1877   1.483       .  S
C341       C1537   1.486       .  S
C342        C777   1.493       .  S
C343        C797   1.485       .  S
H344        O345   0.966       .  S
O345       Zr364   2.350   1_454  S
O345       Zr366   2.342   1_554  S
H346        O347   0.966       .  S
O347       Zr365   2.348   1_554  S
O347       Zr367   2.343   1_554  S
O348       Zr364   2.450       .  S
O348        C371   1.295       .  A
O349       Zr365   2.454       .  S
O349        C372   1.296       .  A
O350       Zr366   2.409       .  S
O350        C373   1.288       .  A
O351       Zr367   2.413       .  S
O351        C374   1.289       .  A
O352       Zr367   2.422       .  S
O352        C375   1.290       .  A
O353       Zr366   2.415       .  S
O353        C376   1.288       .  A
O354       Zr368   2.445   1_455  S
O354        C377   1.293       .  A
O355       Zr368   2.452       .  S
O355        C378   1.295       .  A
O356       Zr366   2.446       .  S
O356        C377   1.294       .  A
O357       Zr367   2.453       .  S
O357        C378   1.294       .  A
O358       Zr364   2.456   1_455  S
O358        C373   1.296       .  A
O359       Zr365   2.460   1_455  S
O359        C376   1.297       .  A
O360       Zr365   2.461       .  S
O360        C375   1.297       .  A
O361       Zr364   2.453       .  S
O361        C374   1.296       .  A
O362       Zr368   2.405       .  S
O362        C371   1.287       .  A
O363       Zr368   2.406       .  S
O363        C372   1.287       .  A
Zr364       O370   2.345   1_655  S
Zr364       O382   2.353       .  S
Zr365       O369   2.350       .  S
Zr365       O380   2.345   1_655  S
Zr366       O370   2.334       .  S
Zr366       O380   2.331       .  S
Zr367       O369   2.331       .  S
Zr367       O382   2.340       .  S
Zr368       O369   2.336       .  S
Zr368       O370   2.337   1_655  S
Zr368       O382   2.335       .  S
Zr368       O380   2.333   1_655  S
C371       C1626   1.474   1_655  S
C372       C1586   1.478       .  S
C373        C697   1.476       .  S
C374        C666   1.478       .  S
C375        C677   1.488       .  S
C376        C717   1.482       .  S
C377        C757   1.491       .  S
C378        C737   1.495       .  S
H379        O380   0.965       .  S
H381        O382   0.966       .  S
N383        C387   1.358       .  A
N383        C384   1.356       .  A
N383        C806   1.441       .  S
C384        C385   1.380       .  A
C384       C1766   1.471       .  S
C385        C386   1.371       .  A
C385        H388   1.082       .  S
C386        C387   1.383       .  A
C386        H389   1.082       .  S
C387        C646   1.476       .  S
N390        C394   1.360       .  A
N390        C391   1.360       .  A
N390        C786   1.449       .  S
C391        C392   1.381       .  A
C391        C617   1.469       .  S
C392        C393   1.364       .  A
C392        H395   1.083       .  S
C393        C394   1.381       .  A
C393        H396   1.082       .  S
C394       C1746   1.469       .  S
N397        C401   1.358       .  A
N397        C398   1.359       .  A
N397        C766   1.450       .  S
C398        C399   1.381       .  A
C398        C597   1.467       .  S
C399        C400   1.367       .  A
C399        H402   1.082       .  S
C400        C401   1.381       .  A
C400        H403   1.082       .  S
C401       C1786   1.467       .  S
N404        C408   1.361       .  A
N404        C405   1.361       .  A
N404        C746   1.450       .  S
C405        C406   1.382       .  A
C405       C1806   1.474       .  S
C406        C407   1.366       .  A
C406        H409   1.082       .  S
C407        C408   1.381       .  A
C407        H410   1.083       .  S
C408        C586   1.470       .  S
N411        C415   1.363       .  A
N411        C412   1.364   1_556  A
N411        C557   1.449       .  S
C412        C413   1.382       .  A
C412        C726   1.479       .  S
C413        C414   1.362       .  A
C413        H416   1.082       .  S
C414        C415   1.381   1_554  A
C414        H417   1.083       .  S
C415        C966   1.474       .  S
O418       Zr454   2.444       .  S
O418        C429   1.294       .  A
O419       Zr453   2.456       .  S
O419        C430   1.296       .  A
O420       Zr426   2.443       .  S
O420        C431   1.293       .  A
O421       Zr426   2.433       .  S
O421        C432   1.292       .  A
O422       Zr456   2.444       .  S
O422        C432   1.294       .  A
O423       Zr455   2.447       .  S
O423        C431   1.294       .  A
O424       Zr426   2.407       .  S
O424        C430   1.287       .  A
O425       Zr426   2.421   1_554  S
O425        C429   1.290       .  A
Zr426       O427   2.334       .  S
Zr426       O428   2.328   1_556  S
Zr426       O436   2.337   1_556  S
Zr426       O434   2.336       .  S
O427       Zr453   2.339       .  S
O427       Zr456   2.336       .  S
O428       Zr454   2.342       .  S
O428       Zr455   2.338   1_554  S
C429        C886   1.480       .  S
C430        C826   1.477       .  S
C431        C566   1.491       .  S
C432        C497   1.484       .  S
H433        O434   0.966       .  S
O434       Zr453   2.342       .  S
O434       Zr455   2.338       .  S
H435        O436   0.965       .  S
O436       Zr454   2.338       .  S
O436       Zr456   2.337   1_554  S
O437       Zr453   2.440       .  S
O437        C460   1.294       .  A
O438       Zr454   2.440       .  S
O438        C461   1.293       .  A
O439       Zr455   2.406       .  S
O439        C462   1.287       .  A
O440       Zr456   2.419       .  S
O440        C463   1.290       .  A
O441       Zr456   2.421   1_554  S
O441        C464   1.290       .  A
O442       Zr455   2.410   1_554  S
O442        C465   1.288       .  A
O443       Zr457   2.449       .  S
O443        C466   1.294       .  A
O444       Zr457   2.443       .  S
O444        C467   1.293       .  A
O445       Zr455   2.459       .  S
O445        C466   1.296       .  A
O446       Zr456   2.450       .  S
O446        C467   1.295       .  A
O447       Zr453   2.460       .  S
O447        C462   1.297       .  A
O448       Zr454   2.441       .  S
O448        C465   1.293       .  A
O449       Zr454   2.458       .  S
O449        C464   1.297       .  A
O450       Zr453   2.455       .  S
O450        C463   1.296       .  A
O451       Zr457   2.417       .  S
O451        C460   1.289       .  A
O452       Zr457   2.410   1_554  S
O452        C461   1.288       .  A
Zr453       O459   2.348       .  S
Zr453       O471   2.351       .  S
Zr454       O458   2.343       .  S
Zr454       O469   2.351       .  S
Zr455       O459   2.334       .  S
Zr455       O469   2.333   1_556  S
Zr456       O458   2.332   1_556  S
Zr456       O471   2.337       .  S
Zr457       O458   2.339   1_556  S
Zr457       O459   2.335       .  S
Zr457       O471   2.339       .  S
Zr457       O469   2.338   1_556  S
C460        C846   1.475       .  S
C461        C866   1.473       .  S
C462        C606   1.479       .  S
C463        C577   1.483       .  S
C464        C637   1.486       .  S
C465        C626   1.472       .  S
C466        C526   1.498       .  S
C467        C537   1.492       .  S
H468        O469   0.966       .  S
H470        O471   0.966       .  S
N472        C476   1.357       .  A
N472        C473   1.356       .  A
N472        C546   1.445       .  S
C473        C474   1.382       .  A
C473        C946   1.468   1_554  S
C474        C475   1.368       .  A
C474        H477   1.082       .  S
C475        C476   1.381       .  A
C475        H478   1.082       .  S
C476        C657   1.467       .  S
N479        C483   1.359       .  A
N479        C480   1.362       .  A
N479        C517   1.451       .  S
C480        C481   1.383       .  A
C480        C926   1.474       .  S
C481        C482   1.367       .  A
C481        H484   1.082       .  S
C482        C483   1.379       .  A
C482        H485   1.082       .  S
C483        C706   1.464       .  S
N486        C490   1.359       .  A
N486        C487   1.360       .  A
N486        C506   1.444       .  S
C487        C488   1.382       .  A
C487        C686   1.477       .  S
C488        C489   1.369       .  A
C488        H491   1.082       .  S
C489        C490   1.381       .  A
C489        H492   1.082       .  S
C490        C906   1.475       .  S
C493        C494   1.405       .  A
C493        C498   1.399       .  A
C493        H503   1.083       .  S
C494        C495   1.405       .  A
C494        C499   1.486       .  S
C495        C496   1.398       .  A
C495        H500   1.083       .  S
C496        C497   1.407       .  A
C496        H501   1.083       .  S
C497        C498   1.406       .  A
C498        H502   1.083   1_556  S
C499        C504   1.405       .  A
C499        C508   1.407   1_556  A
C504        C505   1.398       .  A
C504        H509   1.083       .  S
C505        C506   1.406       .  A
C505        H510   1.083       .  S
C506        C507   1.403   1_556  A
C507        C508   1.400       .  A
C507        H511   1.082       .  S
C508        H512   1.083       .  S
C513        C514   1.406   1_556  A
C513        C518   1.404       .  A
C513        H523   1.083       .  S
C514        C515   1.404       .  A
C514        C519   1.490   1_554  S
C515        C516   1.401       .  A
C515        H520   1.083       .  S
C516        C517   1.407       .  A
C516        H521   1.082       .  S
C517        C518   1.408   1_554  A
C518        H522   1.082       .  S
C519        C524   1.404       .  A
C519        C528   1.406       .  A
C524        C525   1.403       .  A
C524        H529   1.083   1_556  S
C525        C526   1.409       .  A
C525        H530   1.083       .  S
C526        C527   1.411       .  A
C527        C528   1.404       .  A
C527        H531   1.083       .  S
C528        H532   1.083       .  S
C533        C534   1.406       .  A
C533        C538   1.402       .  A
C533        H543   1.083       .  S
C534        C535   1.404   1_556  A
C534        C539   1.488       .  S
C535        C536   1.400       .  A
C535        H540   1.083       .  S
C536        C537   1.408   1_554  A
C536        H541   1.083       .  S
C537        C538   1.409       .  A
C538        H542   1.083       .  S
C539        C544   1.406       .  A
C539        C548   1.406   1_556  A
C544        C545   1.401       .  A
C544        H549   1.083       .  S
C545        C546   1.405   1_556  A
C545        H550   1.082       .  S
C546        C547   1.404       .  A
C547        C548   1.401       .  A
C547        H551   1.083       .  S
C548        H552   1.083       .  S
C553        C554   1.407       .  A
C553        C558   1.404       .  A
C553        H563   1.083       .  S
C554        C555   1.405   1_556  A
C554        C559   1.490       .  S
C555        C556   1.398       .  A
C555        H560   1.083       .  S
C556        C557   1.405   1_554  A
C556        H561   1.082       .  S
C557        C558   1.408       .  A
C558        H562   1.082       .  S
C559        C564   1.405       .  A
C559        C568   1.406       .  A
C564        C565   1.401       .  A
C564        H569   1.083       .  S
C565        C566   1.409       .  A
C565        H570   1.083       .  S
C566        C567   1.407       .  A
C567        C568   1.400       .  A
C567        H571   1.083       .  S
C568        H572   1.083       .  S
C573        C574   1.408       .  A
C573        C578   1.399       .  A
C573        H583   1.083       .  S
C574        C575   1.401       .  A
C574        C579   1.481       .  S
C575        C576   1.394       .  A
C575        H580   1.083       .  S
C576        C577   1.409       .  A
C576        H581   1.083       .  S
C577        C578   1.405       .  A
C578        H582   1.083       .  S
C579        C584   1.404       .  A
C579        C588   1.408       .  A
C584        C585   1.394       .  A
C584        H589   1.083       .  S
C585        C586   1.403       .  A
C585        H590   1.084       .  S
C586        C587   1.400       .  A
C587        C588   1.398       .  A
C587        H591   1.083       .  S
C588        H592   1.083       .  S
C593        C594   1.409       .  A
C593        C598   1.397       .  A
C593        H603   1.083       .  S
C594        C595   1.404       .  A
C594        C599   1.482       .  S
C595        C596   1.393       .  A
C595        H600   1.083       .  S
C596        C597   1.402       .  A
C596        H601   1.084       .  S
C597        C598   1.399       .  A
C598        H602   1.083       .  S
C599        C604   1.401       .  A
C599        C608   1.409       .  A
C604        C605   1.392       .  A
C604        H609   1.083       .  S
C605        C606   1.408       .  A
C605        H610   1.083       .  S
C606        C607   1.403       .  A
C607        C608   1.399       .  A
C607        H611   1.083       .  S
C608        H612   1.083       .  S
C613        C614   1.408       .  A
C613        C618   1.400       .  A
C613        H623   1.083       .  S
C614        C615   1.402       .  A
C614        C619   1.478       .  S
C615        C616   1.388       .  A
C615        H620   1.083       .  S
C616        C617   1.401       .  A
C616        H621   1.084       .  S
C617        C618   1.401       .  A
C618        H622   1.083       .  S
C619        C624   1.408       .  A
C619        C628   1.401       .  A
C624        C625   1.394       .  A
C624        H629   1.083       .  S
C625        C626   1.402       .  A
C625        H630   1.083       .  S
C626        C627   1.407       .  A
C627        C628   1.392       .  A
C627        H631   1.083       .  S
C628        H632   1.083       .  S
C633        C634   1.408       .  A
C633        C638   1.399       .  A
C633        H643   1.083       .  S
C634        C635   1.401       .  A
C634        C639   1.482       .  S
C635        C636   1.396       .  A
C635        H640   1.083       .  S
C636        C637   1.410       .  A
C636        H641   1.083       .  S
C637        C638   1.405       .  A
C638        H642   1.083       .  S
C639        C644   1.408       .  A
C639        C648   1.403       .  A
C644        C645   1.401       .  A
C644        H649   1.083       .  S
C645        C646   1.403       .  A
C645        H650   1.083       .  S
C646        C647   1.403       .  A
C647        C648   1.394       .  A
C647        H651   1.083       .  S
C648        H652   1.083       .  S
C653        C654   1.402       .  A
C653        C658   1.392       .  A
C653        H663   1.083       .  S
C654        C655   1.406   1_554  A
C654        C659   1.475       .  S
C655        C656   1.399       .  A
C655        H660   1.083       .  S
C656        C657   1.402   1_556  A
C656        H661   1.083       .  S
C657        C658   1.401       .  A
C658        H662   1.083       .  S
C659        C664   1.406       .  A
C659        C668   1.400   1_554  A
C664        C665   1.397       .  A
C664        H669   1.083       .  S
C665        C666   1.404   1_554  A
C665        H670   1.083       .  S
C666        C667   1.409       .  A
C667        C668   1.394       .  A
C667        H671   1.083       .  S
C668        H672   1.083       .  S
C673        C674   1.401       .  A
C673        C678   1.395       .  A
C673        H683   1.083       .  S
C674        C675   1.410       .  A
C674        C679   1.487       .  S
C675        C676   1.402       .  A
C675        H680   1.083       .  S
C676        C677   1.406       .  A
C676        H681   1.083       .  S
C677        C678   1.410       .  A
C678        H682   1.083       .  S
C679        C684   1.403   1_556  A
C679        C688   1.410       .  A
C684        C685   1.395       .  A
C684        H689   1.083       .  S
C685        C686   1.404   1_554  A
C685        H690   1.084       .  S
C686        C687   1.401       .  A
C687        C688   1.402       .  A
C687        H691   1.083       .  S
C688        H692   1.083       .  S
C693        C694   1.401   1_554  A
C693        C698   1.392       .  A
C693        H703   1.083       .  S
C694        C695   1.409       .  A
C694        C699   1.482       .  S
C695        C696   1.398       .  A
C695        H700   1.083       .  S
C696        C697   1.402       .  A
C696        H701   1.083       .  S
C697        C698   1.408   1_556  A
C698        H702   1.083       .  S
C699        C704   1.409   1_556  A
C699        C708   1.405       .  A
C704        C705   1.397       .  A
C704        H709   1.083       .  S
C705        C706   1.399       .  A
C705        H710   1.083       .  S
C706        C707   1.400   1_554  A
C707        C708   1.393       .  A
C707        H711   1.083       .  S
C708        H712   1.083       .  S
C713        C714   1.408       .  A
C713        C718   1.397       .  A
C713        H723   1.083   1_556  S
C714        C715   1.402       .  A
C714        C719   1.484       .  S
C715        C716   1.398       .  A
C715        H720   1.083       .  S
C716        C717   1.411       .  A
C716        H721   1.083       .  S
C717        C718   1.402       .  A
C718        H722   1.083   1_556  S
C719        C724   1.402   1_556  A
C719        C728   1.409       .  A
C724        C725   1.390       .  A
C724        H729   1.083       .  S
C725        C726   1.403       .  A
C725        H730   1.083       .  S
C726        C727   1.404   1_554  A
C727        C728   1.404       .  A
C727        H731   1.083       .  S
C728        H732   1.083       .  S
C733        C734   1.408       .  A
C733        C738   1.404       .  A
C733        H743   1.083       .  S
C734        C735   1.408       .  A
C734        C739   1.499       .  S
C735        C736   1.402       .  A
C735        H740   1.083       .  S
C736        C737   1.407       .  A
C736        H741   1.083       .  S
C737        C738   1.408       .  A
C738        H742   1.083       .  S
C739        C744   1.409       .  A
C739        C748   1.408       .  A
C744        C745   1.405       .  A
C744        H749   1.083       .  S
C745        C746   1.406       .  A
C745        H750   1.082       .  S
C746        C747   1.405       .  A
C747        C748   1.401       .  A
C747        H751   1.082       .  S
C748        H752   1.082       .  S
C753        C754   1.406       .  A
C753        C758   1.401       .  A
C753        H763   1.083       .  S
C754        C755   1.406       .  A
C754        C759   1.492       .  S
C755        C756   1.400       .  A
C755        H760   1.083       .  S
C756        C757   1.408       .  A
C756        H761   1.083       .  S
C757        C758   1.408       .  A
C758        H762   1.083       .  S
C759        C764   1.406       .  A
C759        C768   1.407       .  A
C764        C765   1.400       .  A
C764        H769   1.083       .  S
C765        C766   1.407       .  A
C765        H770   1.082       .  S
C766        C767   1.405       .  A
C767        C768   1.401       .  A
C767        H771   1.082       .  S
C768        H772   1.083       .  S
C773        C774   1.409       .  A
C773        C778   1.402       .  A
C773        H783   1.082       .  S
C774        C775   1.409       .  A
C774        C779   1.501       .  S
C775        C776   1.404       .  A
C775        H780   1.082       .  S
C776        C777   1.407       .  A
C776        H781   1.083       .  S
C777        C778   1.407       .  A
C778        H782   1.083       .  S
C779        C784   1.410       .  A
C779        C788   1.410       .  A
C784        C785   1.405       .  A
C784        H789   1.082       .  S
C785        C786   1.406       .  A
C785        H790   1.082       .  S
C786        C787   1.404       .  A
C787        C788   1.402       .  A
C787        H791   1.082       .  S
C788        H792   1.082       .  S
C793        C794   1.406       .  A
C793        C798   1.400       .  A
C793        H803   1.083       .  S
C794        C795   1.404       .  A
C794        C799   1.486       .  S
C795        C796   1.398       .  A
C795        H800   1.083       .  S
C796        C797   1.407       .  A
C796        H801   1.083       .  S
C797        C798   1.407       .  A
C798        H802   1.083       .  S
C799        C804   1.405       .  A
C799        C808   1.407       .  A
C804        C805   1.398       .  A
C804        H809   1.083       .  S
C805        C806   1.403       .  A
C805        H810   1.083       .  S
C806        C807   1.403       .  A
C807        C808   1.400       .  A
C807        H811   1.083       .  S
C808        H812   1.083       .  S
C813        C814   1.404       .  A
C813        C818   1.394       .  A
C813        H823   1.083       .  S
C814        C815   1.408       .  A
C814        C819   1.481       .  S
C815        C816   1.399       .  A
C815        H820   1.083       .  S
C816        C817   1.401       .  A
C816        H821   1.083       .  S
C817        C818   1.400       .  A
C818        H822   1.083       .  S
C819        C824   1.408       .  A
C819        C828   1.401       .  A
C824        C825   1.398       .  A
C824        H829   1.083       .  S
C825        C826   1.402       .  A
C825        H830   1.083       .  S
C826        C827   1.409       .  A
C827        C828   1.394       .  A
C827        H831   1.083       .  S
C828        H832   1.083       .  S
C833        C834   1.405       .  A
C833        C838   1.396       .  A
C833        H843   1.083       .  S
C834        C835   1.403       .  A
C834        C839   1.476       .  S
C835        C836   1.392       .  A
C835        H840   1.083       .  S
C836        C837   1.403       .  A
C836        H841   1.083       .  S
C837        C838   1.402       .  A
C838        H842   1.083       .  S
C839        C844   1.401       .  A
C839        C848   1.406       .  A
C844        C845   1.392       .  A
C844        H849   1.083       .  S
C845        C846   1.407       .  A
C845        H850   1.083       .  S
C846        C847   1.404       .  A
C847        C848   1.396       .  A
C847        H851   1.083       .  S
C848        H852   1.083       .  S
C853        C854   1.409       .  A
C853        C858   1.396       .  A
C853        H863   1.082       .  S
C854        C855   1.404       .  A
C854        C859   1.480       .  S
C855        C856   1.391       .  A
C855        H860   1.083       .  S
C856        C857   1.402       .  A
C856        H861   1.084       .  S
C857        C858   1.399       .  A
C858        H862   1.083       .  S
C859        C864   1.401       .  A
C859        C868   1.409       .  A
C864        C865   1.390       .  A
C864        H869   1.082       .  S
C865        C866   1.406       .  A
C865        H870   1.083       .  S
C866        C867   1.402       .  A
C867        C868   1.396       .  A
C867        H871   1.083       .  S
C868        H872   1.082       .  S
C873        C874   1.403       .  A
C873        C878   1.393       .  A
C873        H883   1.083       .  S
C874        C875   1.407       .  A
C874        C879   1.480       .  S
C875        C876   1.398       .  A
C875        H880   1.083       .  S
C876        C877   1.401       .  A
C876        H881   1.083       .  S
C877        C878   1.404       .  A
C878        H882   1.084       .  S
C879        C884   1.406       .  A
C879        C888   1.402       .  A
C884        C885   1.397       .  A
C884        H889   1.083       .  S
C885        C886   1.405       .  A
C885        H890   1.083       .  S
C886        C887   1.407       .  A
C887        C888   1.394       .  A
C887        H891   1.083       .  S
C888        H892   1.083       .  S
C893        C894   1.409       .  A
C893        C898   1.400       .  A
C893        H903   1.083       .  S
C894        C895   1.402       .  A
C894        C899   1.485       .  S
C895        C896   1.397   1_556  A
C895        H900   1.083   1_556  S
C896        C897   1.409   1_554  A
C896        H901   1.083       .  S
C897        C898   1.403       .  A
C898        H902   1.083       .  S
C899        C904   1.407       .  A
C899        C908   1.405       .  A
C904        C905   1.400       .  A
C904        H909   1.083   1_556  S
C905        C906   1.403       .  A
C905        H910   1.083   1_556  S
C906        C907   1.402       .  A
C907        C908   1.395       .  A
C907        H911   1.083       .  S
C908        H912   1.083       .  S
C913        C914   1.407       .  A
C913        C918   1.397       .  A
C913        H923   1.083       .  S
C914        C915   1.401   1_554  A
C914        C919   1.480       .  S
C915        C916   1.395       .  A
C915        H920   1.083       .  S
C916        C917   1.407       .  A
C916        H921   1.083       .  S
C917        C918   1.404   1_556  A
C918        H922   1.083       .  S
C919        C924   1.403       .  A
C919        C928   1.407   1_554  A
C924        C925   1.393       .  A
C924        H929   1.083       .  S
C925        C926   1.403       .  A
C925        H930   1.083       .  S
C926        C927   1.402   1_554  A
C927        C928   1.399       .  A
C927        H931   1.083       .  S
C928        H932   1.083       .  S
C933        C934   1.405       .  A
C933        C938   1.396       .  A
C933        H943   1.083       .  S
C934        C935   1.397       .  A
C934        C939   1.470       .  S
C935        C936   1.394       .  A
C935        H940   1.083       .  S
C936        C937   1.412       .  A
C936        H941   1.083       .  S
C937        C938   1.403       .  A
C938        H942   1.083       .  S
C939        C944   1.399       .  A
C939        C948   1.406   1_556  A
C944        C945   1.389       .  A
C944        H949   1.083       .  S
C945        C946   1.401       .  A
C945        H950   1.083       .  S
C946        C947   1.403   1_556  A
C947        C948   1.401       .  A
C947        H951   1.083       .  S
C948        H952   1.083       .  S
C953        C954   1.408       .  A
C953        C958   1.397       .  A
C953        H963   1.083       .  S
C954        C955   1.399       .  A
C954        C959   1.480       .  S
C955        C956   1.395       .  A
C955        H960   1.083       .  S
C956        C957   1.411       .  A
C956        H961   1.083       .  S
C957        C958   1.403       .  A
C958        H962   1.083       .  S
C959        C964   1.400       .  A
C959        C968   1.409   1_556  A
C964        C965   1.389       .  A
C964        H969   1.083       .  S
C965        C966   1.402       .  A
C965        H970   1.084       .  S
C966        C967   1.403   1_556  A
C967        C968   1.404       .  A
C967        H971   1.083       .  S
C968        H972   1.083       .  S
C973        C974   1.407       .  A
C973        C978   1.401       .  A
C973        H983   1.083       .  S
C974        C975   1.407       .  A
C974        C979   1.492       .  S
C975        C976   1.398       .  A
C975        H980   1.083       .  S
C976        C977   1.405       .  A
C976        H981   1.083       .  S
C977        C978   1.408       .  A
C978        H982   1.083       .  S
C979        C984   1.409       .  A
C979        C988   1.406       .  A
C984        C985   1.404       .  A
C984        H989   1.083       .  S
C985        C986   1.406       .  A
C985        H990   1.082       .  S
C986        C987   1.402       .  A
C987        C988   1.396       .  A
C987        H991   1.082       .  S
C988        H992   1.083       .  S
C993        C994   1.408       .  A
C993        C998   1.403       .  A
C993       H1003   1.082       .  S
C994        C995   1.410       .  A
C994        C999   1.500       .  S
C995        C996   1.402       .  A
C995       H1000   1.082       .  S
C996        C997   1.406       .  A
C996       H1001   1.083       .  S
C997        C998   1.407       .  A
C998       H1002   1.083       .  S
C999       C1004   1.411       .  A
C999       C1008   1.407       .  A
C1004      C1005   1.405       .  A
C1004      H1009   1.082       .  S
C1005      C1006   1.405       .  A
C1005      H1010   1.082       .  S
C1006      C1007   1.404       .  A
C1007      C1008   1.399       .  A
C1007      H1011   1.082       .  S
C1008      H1012   1.082       .  S
C1013      C1014   1.405       .  A
C1013      C1018   1.403       .  A
C1013      H1023   1.083       .  S
C1014      C1015   1.405       .  A
C1014      C1019   1.492       .  S
C1015      C1016   1.403       .  A
C1015      H1020   1.083       .  S
C1016      C1017   1.409       .  A
C1016      H1021   1.083       .  S
C1017      C1018   1.410       .  A
C1018      H1022   1.083       .  S
C1019      C1024   1.406       .  A
C1019      C1028   1.406       .  A
C1024      C1025   1.403       .  A
C1024      H1029   1.083       .  S
C1025      C1026   1.407       .  A
C1025      H1030   1.082       .  S
C1026      C1027   1.406       .  A
C1027      C1028   1.402       .  A
C1027      H1031   1.082       .  S
C1028      H1032   1.083       .  S
C1033      C1034   1.408       .  A
C1033      C1038   1.405       .  A
C1033      H1043   1.083       .  S
C1034      C1035   1.408       .  A
C1034      C1039   1.499       .  S
C1035      C1036   1.403       .  A
C1035      H1040   1.083       .  S
C1036      C1037   1.407       .  A
C1036      H1041   1.083       .  S
C1037      C1038   1.410       .  A
C1038      H1042   1.083       .  S
C1039      C1044   1.409       .  A
C1039      C1048   1.407       .  A
C1044      C1045   1.405       .  A
C1044      H1049   1.083       .  S
C1045      C1046   1.408       .  A
C1045      H1050   1.082       .  S
C1046      C1047   1.405       .  A
C1047      C1048   1.402       .  A
C1047      H1051   1.082       .  S
C1048      H1052   1.083       .  S
C1053      C1054   1.399       .  A
C1053      C1058   1.395   1_545  A
C1053      H1063   1.083   1_545  S
C1054      C1055   1.407       .  A
C1054      C1059   1.479       .  S
C1055      C1056   1.399       .  A
C1055      H1060   1.083       .  S
C1056      C1057   1.405   1_545  A
C1056      H1061   1.083       .  S
C1057      C1058   1.410       .  A
C1058      H1062   1.083       .  S
C1059      C1064   1.408   1_545  A
C1059      C1068   1.402       .  A
C1064      C1065   1.400       .  A
C1064      H1069   1.083       .  S
C1065      C1066   1.402   1_565  A
C1065      H1070   1.083       .  S
C1066      C1067   1.403       .  A
C1067      C1068   1.392       .  A
C1067      H1071   1.084       .  S
C1068      H1072   1.083       .  S
C1073      C1074   1.402       .  A
C1073      C1078   1.391       .  A
C1073      H1083   1.083       .  S
C1074      C1075   1.408   1_545  A
C1074      C1079   1.477   1_545  S
C1075      C1076   1.398       .  A
C1075      H1080   1.083       .  S
C1076      C1077   1.400       .  A
C1076      H1081   1.083       .  S
C1077      C1078   1.403   1_565  A
C1078      H1082   1.084       .  S
C1079      C1084   1.407       .  A
C1079      C1088   1.400       .  A
C1084      C1085   1.398       .  A
C1084      H1089   1.083   1_565  S
C1085      C1086   1.405       .  A
C1085      H1090   1.083       .  S
C1086      C1087   1.409       .  A
C1087      C1088   1.393       .  A
C1087      H1091   1.083       .  S
C1088      H1092   1.083       .  S
C1093      C1094   1.407   1_545  A
C1093      C1098   1.399       .  A
C1093      H1103   1.083       .  S
C1094      C1095   1.403       .  A
C1094      C1099   1.480       .  S
C1095      C1096   1.394       .  A
C1095      H1100   1.083       .  S
C1096      C1097   1.403       .  A
C1096      H1101   1.083       .  S
C1097      C1098   1.401   1_565  A
C1098      H1102   1.083       .  S
C1099      C1104   1.399       .  A
C1099      C1108   1.408       .  A
C1104      C1105   1.393       .  A
C1104      H1109   1.083       .  S
C1105      C1106   1.410       .  A
C1105      H1110   1.083   1_565  S
C1106      C1107   1.404       .  A
C1107      C1108   1.400       .  A
C1107      H1111   1.083       .  S
C1108      H1112   1.083       .  S
C1113      C1114   1.403       .  A
C1113      C1118   1.393       .  A
C1113      H1123   1.083       .  S
C1114      C1115   1.409       .  A
C1114      C1119   1.484       .  S
C1115      C1116   1.400       .  A
C1115      H1120   1.083       .  S
C1116      C1117   1.401       .  A
C1116      H1121   1.083       .  S
C1117      C1118   1.404       .  A
C1118      H1122   1.084       .  S
C1119      C1124   1.409       .  A
C1119      C1128   1.401       .  A
C1124      C1125   1.400       .  A
C1124      H1129   1.083       .  S
C1125      C1126   1.405       .  A
C1125      H1130   1.083       .  S
C1126      C1127   1.410       .  A
C1127      C1128   1.395       .  A
C1127      H1131   1.083       .  S
C1128      H1132   1.083       .  S
C1133      C1134   1.409       .  A
C1133      C1138   1.399       .  A
C1133      H1143   1.083       .  S
C1134      C1135   1.402       .  A
C1134      C1139   1.484       .  S
C1135      C1136   1.394       .  A
C1135      H1140   1.083       .  S
C1136      C1137   1.408       .  A
C1136      H1141   1.083       .  S
C1137      C1138   1.404       .  A
C1138      H1142   1.083       .  S
C1139      C1144   1.404       .  A
C1139      C1148   1.408       .  A
C1144      C1145   1.393       .  A
C1144      H1149   1.083       .  S
C1145      C1146   1.403       .  A
C1145      H1150   1.084       .  S
C1146      C1147   1.401       .  A
C1147      C1148   1.398       .  A
C1147      H1151   1.083       .  S
C1148      H1152   1.082       .  S
C1153      C1154   1.403       .  A
C1153      C1158   1.396       .  A
C1153      H1163   1.083       .  S
C1154      C1155   1.408       .  A
C1154      C1159   1.483       .  S
C1155      C1156   1.396       .  A
C1155      H1160   1.083       .  S
C1156      C1157   1.401       .  A
C1156      H1161   1.083       .  S
C1157      C1158   1.407       .  A
C1158      H1162   1.083       .  S
C1159      C1164   1.408       .  A
C1159      C1168   1.405       .  A
C1164      C1165   1.400       .  A
C1164      H1169   1.083       .  S
C1165      C1166   1.402       .  A
C1165      H1170   1.083       .  S
C1166      C1167   1.401       .  A
C1167      C1168   1.393       .  A
C1167      H1171   1.083       .  S
C1168      H1172   1.083       .  S
C1173      C1174   1.407       .  A
C1173      C1178   1.398       .  A
C1173      H1183   1.083       .  S
C1174      C1175   1.400       .  A
C1174      C1179   1.480       .  S
C1175      C1176   1.395       .  A
C1175      H1180   1.083       .  S
C1176      C1177   1.410       .  A
C1176      H1181   1.083       .  S
C1177      C1178   1.405       .  A
C1178      H1182   1.083       .  S
C1179      C1184   1.402       .  A
C1179      C1188   1.408       .  A
C1184      C1185   1.393       .  A
C1184      H1189   1.083       .  S
C1185      C1186   1.403       .  A
C1185      H1190   1.084       .  S
C1186      C1187   1.401       .  A
C1187      C1188   1.400       .  A
C1187      H1191   1.083       .  S
C1188      H1192   1.083       .  S
C1193      C1194   1.411       .  A
C1193      C1198   1.405       .  A
C1193      H1203   1.082       .  S
C1194      C1195   1.411   1_545  A
C1194      C1199   1.507       .  S
C1195      C1196   1.405       .  A
C1195      H1200   1.082       .  S
C1196      C1197   1.405   1_565  A
C1196      H1201   1.082       .  S
C1197      C1198   1.406       .  A
C1198      H1202   1.083       .  S
C1199      C1204   1.410   1_545  A
C1199      C1208   1.411       .  A
C1204      C1205   1.405       .  A
C1204      H1209   1.082       .  S
C1205      C1206   1.408       .  A
C1205      H1210   1.083       .  S
C1206      C1207   1.408   1_565  A
C1207      C1208   1.407       .  A
C1207      H1211   1.083       .  S
C1208      H1212   1.082       .  S
C1213      C1214   1.409   1_545  A
C1213      C1218   1.404       .  A
C1213      H1223   1.083       .  S
C1214      C1215   1.408       .  A
C1214      C1219   1.500       .  S
C1215      C1216   1.403       .  A
C1215      H1220   1.083       .  S
C1216      C1217   1.408       .  A
C1216      H1221   1.082       .  S
C1217      C1218   1.407   1_565  A
C1218      H1222   1.082       .  S
C1219      C1224   1.408   1_565  A
C1219      C1228   1.408       .  A
C1224      C1225   1.404       .  A
C1224      H1229   1.082       .  S
C1225      C1226   1.407   1_545  A
C1225      H1230   1.083       .  S
C1226      C1227   1.409       .  A
C1227      C1228   1.403       .  A
C1227      H1231   1.083       .  S
C1228      H1232   1.083       .  S
C1233      C1234   1.409   1_545  A
C1233      C1238   1.403       .  A
C1233      H1243   1.083       .  S
C1234      C1235   1.407       .  A
C1234      C1239   1.497       .  S
C1235      C1236   1.402       .  A
C1235      H1240   1.083       .  S
C1236      C1237   1.407       .  A
C1236      H1241   1.082       .  S
C1237      C1238   1.405   1_565  A
C1238      H1242   1.082       .  S
C1239      C1244   1.407   1_565  A
C1239      C1248   1.408       .  A
C1244      C1245   1.402       .  A
C1244      H1249   1.083       .  S
C1245      C1246   1.406   1_545  A
C1245      H1250   1.083       .  S
C1246      C1247   1.410       .  A
C1247      C1248   1.404       .  A
C1247      H1251   1.083       .  S
C1248      H1252   1.083       .  S
C1253      C1254   1.403       .  A
C1253      C1258   1.393       .  A
C1253      H1263   1.083       .  S
C1254      C1255   1.408   1_565  A
C1254      C1259   1.482       .  S
C1255      C1256   1.400       .  A
C1255      H1260   1.083       .  S
C1256      C1257   1.402   1_545  A
C1256      H1261   1.083       .  S
C1257      C1258   1.404       .  A
C1258      H1262   1.083       .  S
C1259      C1264   1.408       .  A
C1259      C1268   1.401       .  A
C1264      C1265   1.398       .  A
C1264      H1269   1.083       .  S
C1265      C1266   1.404       .  A
C1265      H1270   1.083       .  S
C1266      C1267   1.409       .  A
C1267      C1268   1.394       .  A
C1267      H1271   1.083   1_565  S
C1268      H1272   1.083       .  S
C1273      C1274   1.410   1_545  A
C1273      C1278   1.404       .  A
C1273      H1283   1.082       .  S
C1274      C1275   1.410       .  A
C1274      C1279   1.502       .  S
C1275      C1276   1.402       .  A
C1275      H1280   1.082       .  S
C1276      C1277   1.405       .  A
C1276      H1281   1.082       .  S
C1277      C1278   1.406   1_565  A
C1278      H1282   1.082       .  S
C1279      C1284   1.410   1_565  A
C1279      C1288   1.409       .  A
C1284      C1285   1.405       .  A
C1284      H1289   1.082       .  S
C1285      C1286   1.409   1_545  A
C1285      H1290   1.083       .  S
C1286      C1287   1.406       .  A
C1287      C1288   1.401       .  A
C1287      H1291   1.083       .  S
C1288      H1292   1.082       .  S
C1293      C1294   1.402       .  A
C1293      C1298   1.394       .  A
C1293      H1303   1.083       .  S
C1294      C1295   1.408       .  A
C1294      C1299   1.479       .  S
C1295      C1296   1.401       .  A
C1295      H1300   1.083       .  S
C1296      C1297   1.401       .  A
C1296      H1301   1.083       .  S
C1297      C1298   1.403       .  A
C1298      H1302   1.083       .  S
C1299      C1304   1.408       .  A
C1299      C1308   1.398       .  A
C1304      C1305   1.402       .  A
C1304      H1309   1.083       .  S
C1305      C1306   1.404       .  A
C1305      H1310   1.083       .  S
C1306      C1307   1.412       .  A
C1307      C1308   1.393       .  A
C1307      H1311   1.083       .  S
C1308      H1312   1.083       .  S
C1313      C1314   1.406       .  A
C1313      C1318   1.402       .  A
C1313      H1323   1.083       .  S
C1314      C1315   1.400       .  A
C1314      C1319   1.475       .  S
C1315      C1316   1.393       .  A
C1315      H1320   1.083       .  S
C1316      C1317   1.402       .  A
C1316      H1321   1.083       .  S
C1317      C1318   1.404       .  A
C1318      H1322   1.083       .  S
C1319      C1324   1.398       .  A
C1319      C1328   1.406       .  A
C1324      C1325   1.396       .  A
C1324      H1329   1.083       .  S
C1325      C1326   1.413       .  A
C1325      H1330   1.083       .  S
C1326      C1327   1.404       .  A
C1327      C1328   1.399       .  A
C1327      H1331   1.083       .  S
C1328      H1332   1.083       .  S
C1333      C1334   1.409       .  A
C1333      C1338   1.401       .  A
C1333      H1343   1.083       .  S
C1334      C1335   1.402       .  A
C1334      C1339   1.480       .  S
C1335      C1336   1.390       .  A
C1335      H1340   1.083       .  S
C1336      C1337   1.401       .  A
C1336      H1341   1.084       .  S
C1337      C1338   1.401       .  A
C1338      H1342   1.083       .  S
C1339      C1344   1.399       .  A
C1339      C1348   1.408       .  A
C1344      C1345   1.394       .  A
C1344      H1349   1.083       .  S
C1345      C1346   1.411       .  A
C1345      H1350   1.083       .  S
C1346      C1347   1.403       .  A
C1347      C1348   1.398       .  A
C1347      H1351   1.083       .  S
C1348      H1352   1.083       .  S
C1353      C1354   1.402       .  A
C1353      C1358   1.393       .  A
C1353      H1363   1.083       .  S
C1354      C1355   1.408       .  A
C1354      C1359   1.480       .  S
C1355      C1356   1.401       .  A
C1355      H1360   1.083       .  S
C1356      C1357   1.404       .  A
C1356      H1361   1.083       .  S
C1357      C1358   1.401       .  A
C1358      H1362   1.083       .  S
C1359      C1364   1.400       .  A
C1359      C1368   1.408       .  A
C1364      C1365   1.394       .  A
C1364      H1369   1.083       .  S
C1365      C1366   1.411       .  A
C1365      H1370   1.083       .  S
C1366      C1367   1.402       .  A
C1367      C1368   1.398       .  A
C1367      H1371   1.083       .  S
C1368      H1372   1.083       .  S
C1373      C1374   1.407       .  A
C1373      C1378   1.397       .  A
C1373      H1383   1.083       .  S
C1374      C1375   1.400       .  A
C1374      C1379   1.475       .  S
C1375      C1376   1.390       .  A
C1375      H1380   1.083   1_565  S
C1376      C1377   1.406       .  A
C1376      H1381   1.083   1_565  S
C1377      C1378   1.404       .  A
C1378      H1382   1.083       .  S
C1379      C1384   1.402       .  A
C1379      C1388   1.407   1_565  A
C1384      C1385   1.391       .  A
C1384      H1389   1.083       .  S
C1385      C1386   1.402       .  A
C1385      H1390   1.083       .  S
C1386      C1387   1.401   1_565  A
C1387      C1388   1.397       .  A
C1387      H1391   1.083       .  S
C1388      H1392   1.083       .  S
C1393      C1394   1.409       .  A
C1393      C1398   1.399       .  A
C1393      H1403   1.083       .  S
C1394      C1395   1.402   1_545  A
C1394      C1399   1.484       .  S
C1395      C1396   1.394       .  A
C1395      H1400   1.083       .  S
C1396      C1397   1.408       .  A
C1396      H1401   1.083       .  S
C1397      C1398   1.404   1_565  A
C1398      H1402   1.083       .  S
C1399      C1404   1.404       .  A
C1399      C1408   1.409   1_545  A
C1404      C1405   1.394       .  A
C1404      H1409   1.083       .  S
C1405      C1406   1.404       .  A
C1405      H1410   1.084       .  S
C1406      C1407   1.400   1_545  A
C1407      C1408   1.399       .  A
C1407      H1411   1.083       .  S
C1408      H1412   1.082       .  S
C1413      C1414   1.409   1_545  A
C1413      C1418   1.401       .  A
C1413      H1423   1.083       .  S
C1414      C1415   1.402       .  A
C1414      C1419   1.480       .  S
C1415      C1416   1.391       .  A
C1415      H1420   1.083       .  S
C1416      C1417   1.402       .  A
C1416      H1421   1.083       .  S
C1417      C1418   1.401   1_565  A
C1418      H1422   1.083       .  S
C1419      C1424   1.400   1_565  A
C1419      C1428   1.408       .  A
C1424      C1425   1.393       .  A
C1424      H1429   1.083       .  S
C1425      C1426   1.408   1_545  A
C1425      H1430   1.083       .  S
C1426      C1427   1.404       .  A
C1427      C1428   1.398       .  A
C1427      H1431   1.083       .  S
C1428      H1432   1.083       .  S
C1433      C1434   1.402   1_565  A
C1433      C1438   1.395       .  A
C1433      H1443   1.083       .  S
C1434      C1435   1.408       .  A
C1434      C1439   1.483       .  S
C1435      C1436   1.397       .  A
C1435      H1440   1.083       .  S
C1436      C1437   1.404   1_545  A
C1436      H1441   1.083       .  S
C1437      C1438   1.409       .  A
C1438      H1442   1.083       .  S
C1439      C1444   1.409   1_545  A
C1439      C1448   1.403       .  A
C1444      C1445   1.400       .  A
C1444      H1449   1.083       .  S
C1445      C1446   1.401       .  A
C1445      H1450   1.083       .  S
C1446      C1447   1.403   1_565  A
C1447      C1448   1.392       .  A
C1447      H1451   1.084       .  S
C1448      H1452   1.083       .  S
C1453      C1454   1.406       .  A
C1453      C1458   1.402       .  A
C1453      H1463   1.083       .  S
C1454      C1455   1.406       .  A
C1454      C1459   1.492       .  S
C1455      C1456   1.402       .  A
C1455      H1460   1.083       .  S
C1456      C1457   1.409       .  A
C1456      H1461   1.083       .  S
C1457      C1458   1.409       .  A
C1458      H1462   1.083       .  S
C1459      C1464   1.408       .  A
C1459      C1468   1.405       .  A
C1464      C1465   1.404       .  A
C1464      H1469   1.083       .  S
C1465      C1466   1.406       .  A
C1465      H1470   1.082       .  S
C1466      C1467   1.406       .  A
C1467      C1468   1.400       .  A
C1467      H1471   1.082       .  S
C1468      H1472   1.083       .  S
C1473      C1474   1.407       .  A
C1473      C1478   1.397       .  A
C1473      H1483   1.082       .  S
C1474      C1475   1.409       .  A
C1474      C1479   1.493       .  S
C1475      C1476   1.400       .  A
C1475      H1480   1.082       .  S
C1476      C1477   1.404       .  A
C1476      H1481   1.083       .  S
C1477      C1478   1.405       .  A
C1478      H1482   1.083       .  S
C1479      C1484   1.409       .  A
C1479      C1488   1.408       .  A
C1484      C1485   1.399       .  A
C1484      H1489   1.082       .  S
C1485      C1486   1.402       .  A
C1485      H1490   1.083       .  S
C1486      C1487   1.402       .  A
C1487      C1488   1.398       .  A
C1487      H1491   1.082       .  S
C1488      H1492   1.082       .  S
C1493      C1494   1.408       .  A
C1493      C1498   1.404       .  A
C1493      H1503   1.083       .  S
C1494      C1495   1.406       .  A
C1494      C1499   1.496       .  S
C1495      C1496   1.401       .  A
C1495      H1500   1.083       .  S
C1496      C1497   1.406       .  A
C1496      H1501   1.082       .  S
C1497      C1498   1.407       .  A
C1498      H1502   1.082       .  S
C1499      C1504   1.406       .  A
C1499      C1508   1.408       .  A
C1504      C1505   1.403       .  A
C1504      H1509   1.083       .  S
C1505      C1506   1.409       .  A
C1505      H1510   1.083       .  S
C1506      C1507   1.409       .  A
C1507      C1508   1.403       .  A
C1507      H1511   1.083       .  S
C1508      H1512   1.083       .  S
C1513      C1514   1.405       .  A
C1513      C1518   1.399       .  A
C1513      H1523   1.083       .  S
C1514      C1515   1.403       .  A
C1514      C1519   1.482       .  S
C1515      C1516   1.398       .  A
C1515      H1520   1.083       .  S
C1516      C1517   1.407       .  A
C1516      H1521   1.083       .  S
C1517      C1518   1.407       .  A
C1518      H1522   1.083       .  S
C1519      C1524   1.407       .  A
C1519      C1528   1.404       .  A
C1524      C1525   1.400       .  A
C1524      H1529   1.083       .  S
C1525      C1526   1.402       .  A
C1525      H1530   1.083       .  S
C1526      C1527   1.402       .  A
C1527      C1528   1.395       .  A
C1527      H1531   1.083       .  S
C1528      H1532   1.083       .  S
C1533      C1534   1.409       .  A
C1533      C1538   1.400       .  A
C1533      H1543   1.083       .  S
C1534      C1535   1.401       .  A
C1534      C1539   1.486       .  S
C1535      C1536   1.396       .  A
C1535      H1540   1.083       .  S
C1536      C1537   1.410       .  A
C1536      H1541   1.083       .  S
C1537      C1538   1.405       .  A
C1538      H1542   1.083       .  S
C1539      C1544   1.410   1_655  A
C1539      C1548   1.402       .  A
C1544      C1545   1.403       .  A
C1544      H1549   1.083       .  S
C1545      C1546   1.403   1_455  A
C1545      H1550   1.083       .  S
C1546      C1547   1.405       .  A
C1547      C1548   1.392       .  A
C1547      H1551   1.083       .  S
C1548      H1552   1.083       .  S
C1553      C1554   1.406   1_655  A
C1553      C1558   1.399       .  A
C1553      H1563   1.083       .  S
C1554      C1555   1.403       .  A
C1554      C1559   1.476   1_455  S
C1555      C1556   1.391       .  A
C1555      H1560   1.083       .  S
C1556      C1557   1.401       .  A
C1556      H1561   1.083       .  S
C1557      C1558   1.403   1_455  A
C1558      H1562   1.083       .  S
C1559      C1564   1.406   1_655  A
C1559      C1568   1.401       .  A
C1564      C1565   1.394       .  A
C1564      H1569   1.083       .  S
C1565      C1566   1.402   1_455  A
C1565      H1570   1.083       .  S
C1566      C1567   1.408       .  A
C1567      C1568   1.395       .  A
C1567      H1571   1.083       .  S
C1568      H1572   1.083       .  S
C1573      C1574   1.402       .  A
C1573      C1578   1.393       .  A
C1573      H1583   1.083       .  S
C1574      C1575   1.407   1_455  A
C1574      C1579   1.479       .  S
C1575      C1576   1.399       .  A
C1575      H1580   1.083       .  S
C1576      C1577   1.402   1_655  A
C1576      H1581   1.083       .  S
C1577      C1578   1.404       .  A
C1578      H1582   1.083       .  S
C1579      C1584   1.408       .  A
C1579      C1588   1.400   1_455  A
C1584      C1585   1.397       .  A
C1584      H1589   1.083       .  S
C1585      C1586   1.403   1_455  A
C1585      H1590   1.083       .  S
C1586      C1587   1.409       .  A
C1587      C1588   1.393       .  A
C1587      H1591   1.083       .  S
C1588      H1592   1.083       .  S
C1593      C1594   1.407   1_455  A
C1593      C1598   1.399       .  A
C1593      H1603   1.083       .  S
C1594      C1595   1.404       .  A
C1594      C1599   1.481       .  S
C1595      C1596   1.393       .  A
C1595      H1600   1.083       .  S
C1596      C1597   1.402       .  A
C1596      H1601   1.083       .  S
C1597      C1598   1.402   1_655  A
C1598      H1602   1.083       .  S
C1599      C1604   1.402       .  A
C1599      C1608   1.407       .  A
C1604      C1605   1.396   1_655  A
C1604      H1609   1.083   1_655  S
C1605      C1606   1.410   1_455  A
C1605      H1610   1.083       .  S
C1606      C1607   1.404       .  A
C1607      C1608   1.397       .  A
C1607      H1611   1.083       .  S
C1608      H1612   1.083       .  S
C1613      C1614   1.410   1_455  A
C1613      C1618   1.399       .  A
C1613      H1623   1.082       .  S
C1614      C1615   1.404       .  A
C1614      C1619   1.483   1_655  S
C1615      C1616   1.391       .  A
C1615      H1620   1.083       .  S
C1616      C1617   1.401   1_655  A
C1616      H1621   1.084       .  S
C1617      C1618   1.399       .  A
C1618      H1622   1.083       .  S
C1619      C1624   1.402       .  A
C1619      C1628   1.410   1_455  A
C1624      C1625   1.391       .  A
C1624      H1629   1.082       .  S
C1625      C1626   1.408       .  A
C1625      H1630   1.083       .  S
C1626      C1627   1.401   1_455  A
C1627      C1628   1.397       .  A
C1627      H1631   1.083       .  S
C1628      H1632   1.082       .  S
C1633      C1634   1.407   1_655  A
C1633      C1638   1.398       .  A
C1633      H1643   1.083       .  S
C1634      C1635   1.403       .  A
C1634      C1639   1.479       .  S
C1635      C1636   1.391       .  A
C1635      H1640   1.083       .  S
C1636      C1637   1.401       .  A
C1636      H1641   1.083       .  S
C1637      C1638   1.402   1_455  A
C1638      H1642   1.083       .  S
C1639      C1644   1.400   1_455  A
C1639      C1648   1.409       .  A
C1644      C1645   1.392       .  A
C1644      H1649   1.083       .  S
C1645      C1646   1.408       .  A
C1645      H1650   1.083       .  S
C1646      C1647   1.403   1_655  A
C1647      C1648   1.398       .  A
C1647      H1651   1.083       .  S
C1648      H1652   1.083       .  S
C1653      C1654   1.410       .  A
C1653      C1658   1.400       .  A
C1653      H1663   1.083       .  S
C1654      C1655   1.402       .  A
C1654      C1659   1.487       .  S
C1655      C1656   1.394       .  A
C1655      H1660   1.083       .  S
C1656      C1657   1.408       .  A
C1656      H1661   1.083       .  S
C1657      C1658   1.403       .  A
C1658      H1662   1.083       .  S
C1659      C1664   1.405       .  A
C1659      C1668   1.409       .  A
C1664      C1665   1.395       .  A
C1664      H1669   1.083       .  S
C1665      C1666   1.404       .  A
C1665      H1670   1.083       .  S
C1666      C1667   1.402       .  A
C1667      C1668   1.399       .  A
C1667      H1671   1.083       .  S
C1668      H1672   1.082       .  S
C1673      C1674   1.400       .  A
C1673      C1678   1.393       .  A
C1673      H1683   1.083       .  S
C1674      C1675   1.409       .  A
C1674      C1679   1.480       .  S
C1675      C1676   1.397       .  A
C1675      H1680   1.083       .  S
C1676      C1677   1.402       .  A
C1676      H1681   1.083       .  S
C1677      C1678   1.409       .  A
C1678      H1682   1.083       .  S
C1679      C1684   1.408       .  A
C1679      C1688   1.402       .  A
C1684      C1685   1.400       .  A
C1684      H1689   1.083       .  S
C1685      C1686   1.402       .  A
C1685      H1690   1.083       .  S
C1686      C1687   1.402       .  A
C1687      C1688   1.390       .  A
C1687      H1691   1.083       .  S
C1688      H1692   1.083       .  S
C1693      C1694   1.409       .  A
C1693      C1698   1.404       .  A
C1693      H1703   1.083       .  S
C1694      C1695   1.402       .  A
C1694      C1699   1.484       .  S
C1695      C1696   1.394       .  A
C1695      H1700   1.083       .  S
C1696      C1697   1.402       .  A
C1696      H1701   1.083       .  S
C1697      C1698   1.404       .  A
C1698      H1702   1.083       .  S
C1699      C1704   1.407       .  A
C1699      C1708   1.400       .  A
C1704      C1705   1.400       .  A
C1704      H1709   1.083       .  S
C1705      C1706   1.405       .  A
C1705      H1710   1.083       .  S
C1706      C1707   1.413       .  A
C1707      C1708   1.399       .  A
C1707      H1711   1.083       .  S
C1708      H1712   1.083       .  S
C1713      C1714   1.404       .  A
C1713      C1718   1.402       .  A
C1713      H1723   1.083       .  S
C1714      C1715   1.408       .  A
C1714      C1719   1.490       .  S
C1715      C1716   1.400       .  A
C1715      H1720   1.083       .  S
C1716      C1717   1.405       .  A
C1716      H1721   1.083       .  S
C1717      C1718   1.411       .  A
C1718      H1722   1.083       .  S
C1719      C1724   1.409       .  A
C1719      C1728   1.405       .  A
C1724      C1725   1.403       .  A
C1724      H1729   1.083       .  S
C1725      C1726   1.403       .  A
C1725      H1730   1.083       .  S
C1726      C1727   1.402       .  A
C1727      C1728   1.397       .  A
C1727      H1731   1.083       .  S
C1728      H1732   1.083       .  S
C1733      C1734   1.400       .  A
C1733      C1738   1.394       .  A
C1733      H1743   1.083       .  S
C1734      C1735   1.409       .  A
C1734      C1739   1.482       .  S
C1735      C1736   1.399       .  A
C1735      H1740   1.083       .  S
C1736      C1737   1.403       .  A
C1736      H1741   1.083       .  S
C1737      C1738   1.411       .  A
C1738      H1742   1.083       .  S
C1739      C1744   1.403       .  A
C1739      C1748   1.409       .  A
C1744      C1745   1.392       .  A
C1744      H1749   1.083       .  S
C1745      C1746   1.402       .  A
C1745      H1750   1.084       .  S
C1746      C1747   1.401       .  A
C1747      C1748   1.401       .  A
C1747      H1751   1.083       .  S
C1748      H1752   1.083       .  S
C1753      C1754   1.403       .  A
C1753      C1758   1.398       .  A
C1753      H1763   1.083       .  S
C1754      C1755   1.409       .  A
C1754      C1759   1.486       .  S
C1755      C1756   1.396       .  A
C1755      H1760   1.083       .  S
C1756      C1757   1.402       .  A
C1756      H1761   1.083       .  S
C1757      C1758   1.410       .  A
C1758      H1762   1.083       .  S
C1759      C1764   1.405       .  A
C1759      C1768   1.409       .  A
C1764      C1765   1.393       .  A
C1764      H1769   1.083       .  S
C1765      C1766   1.400       .  A
C1765      H1770   1.083       .  S
C1766      C1767   1.402       .  A
C1767      C1768   1.401       .  A
C1767      H1771   1.083       .  S
C1768      H1772   1.083       .  S
C1773      C1774   1.403       .  A
C1773      C1778   1.396       .  A
C1773      H1783   1.083       .  S
C1774      C1775   1.406       .  A
C1774      C1779   1.478       .  S
C1775      C1776   1.393       .  A
C1775      H1780   1.083       .  S
C1776      C1777   1.401       .  A
C1776      H1781   1.083       .  S
C1777      C1778   1.409       .  A
C1778      H1782   1.083       .  S
C1779      C1784   1.406       .  A
C1779      C1788   1.405       .  A
C1784      C1785   1.397       .  A
C1784      H1789   1.083       .  S
C1785      C1786   1.401       .  A
C1785      H1790   1.083       .  S
C1786      C1787   1.400       .  A
C1787      C1788   1.392       .  A
C1787      H1791   1.083       .  S
C1788      H1792   1.083       .  S
C1793      C1794   1.398       .  A
C1793      C1798   1.392       .  A
C1793      H1803   1.083       .  S
C1794      C1795   1.408       .  A
C1794      C1799   1.478       .  S
C1795      C1796   1.400       .  A
C1795      H1800   1.083       .  S
C1796      C1797   1.403       .  A
C1796      H1801   1.083       .  S
C1797      C1798   1.411       .  A
C1798      H1802   1.083       .  S
C1799      C1804   1.408       .  A
C1799      C1808   1.401       .  A
C1804      C1805   1.399       .  A
C1804      H1809   1.083       .  S
C1805      C1806   1.402       .  A
C1805      H1810   1.083       .  S
C1806      C1807   1.404       .  A
C1807      C1808   1.392       .  A
C1807      H1811   1.083       .  S
C1808      H1812   1.083       .  S
C1813      C1814   1.404       .  A
C1813      C1818   1.399       .  A
C1813      H1823   1.083       .  S
C1814      C1815   1.403       .  A
C1814      C1819   1.483       .  S
C1815      C1816   1.398       .  A
C1815      H1820   1.083       .  S
C1816      C1817   1.408       .  A
C1816      H1821   1.083       .  S
C1817      C1818   1.408       .  A
C1818      H1822   1.083       .  S
C1819      C1824   1.404       .  A
C1819      C1828   1.405   1_455  A
C1824      C1825   1.399       .  A
C1824      H1829   1.083       .  S
C1825      C1826   1.407       .  A
C1825      H1830   1.082       .  S
C1826      C1827   1.404   1_455  A
C1827      C1828   1.400       .  A
C1827      H1831   1.082       .  S
C1828      H1832   1.083       .  S
C1833      C1834   1.405       .  A
C1833      C1838   1.399       .  A
C1833      H1843   1.083       .  S
C1834      C1835   1.405       .  A
C1834      C1839   1.486       .  S
C1835      C1836   1.401       .  A
C1835      H1840   1.083       .  S
C1836      C1837   1.409       .  A
C1836      H1841   1.083       .  S
C1837      C1838   1.407       .  A
C1838      H1842   1.083       .  S
C1839      C1844   1.406   1_655  A
C1839      C1848   1.405       .  A
C1844      C1845   1.400       .  A
C1844      H1849   1.083       .  S
C1845      C1846   1.405   1_455  A
C1845      H1850   1.082       .  S
C1846      C1847   1.407       .  A
C1847      C1848   1.400       .  A
C1847      H1851   1.082       .  S
C1848      H1852   1.083       .  S
C1853      C1854   1.404       .  A
C1853      C1858   1.402       .  A
C1853      H1863   1.083       .  S
C1854      C1855   1.404       .  A
C1854      C1859   1.487       .  S
C1855      C1856   1.401       .  A
C1855      H1860   1.083       .  S
C1856      C1857   1.408       .  A
C1856      H1861   1.083       .  S
C1857      C1858   1.410       .  A
C1858      H1862   1.083       .  S
C1859      C1864   1.404       .  A
C1859      C1868   1.406   1_455  A
C1864      C1865   1.399       .  A
C1864      H1869   1.083       .  S
C1865      C1866   1.407       .  A
C1865      H1870   1.082       .  S
C1866      C1867   1.406   1_455  A
C1867      C1868   1.402       .  A
C1867      H1871   1.082       .  S
C1868      H1872   1.083       .  S
C1873      C1874   1.406       .  A
C1873      C1878   1.398       .  A
C1873      H1883   1.083       .  S
C1874      C1875   1.400   1_655  A
C1874      C1879   1.479       .  S
C1875      C1876   1.395       .  A
C1875      H1880   1.083       .  S
C1876      C1877   1.411   1_455  A
C1876      H1881   1.083       .  S
C1877      C1878   1.404       .  A
C1878      H1882   1.083       .  S
C1879      C1884   1.402       .  A
C1879      C1888   1.407   1_655  A
C1884      C1885   1.393       .  A
C1884      H1889   1.083       .  S
C1885      C1886   1.403       .  A
C1885      H1890   1.084       .  S
C1886      C1887   1.401   1_655  A
C1887      C1888   1.400       .  A
C1887      H1891   1.083       .  S
C1888      H1892   1.083       .  S
C1893      C1894   1.411       .  A
C1893      C1898   1.399       .  A
C1893      H1903   1.082       .  S
C1894      C1895   1.402   1_455  A
C1894      C1899   1.487       .  S
C1895      C1896   1.394       .  A
C1895      H1900   1.082       .  S
C1896      C1897   1.407       .  A
C1896      H1901   1.083       .  S
C1897      C1898   1.402   1_655  A
C1898      H1902   1.083       .  S
C1899      C1904   1.404       .  A
C1899      C1908   1.410   1_455  A
C1904      C1905   1.392       .  A
C1904      H1909   1.083       .  S
C1905      C1906   1.401       .  A
C1905      H1910   1.083       .  S
C1906      C1907   1.402   1_455  A
C1907      C1908   1.401       .  A
C1907      H1911   1.083       .  S
C1908      H1912   1.082       .  S
C1913      C1914   1.410   1_655  A
C1913      C1918   1.405       .  A
C1913      H1923   1.082       .  S
C1914      C1915   1.408       .  A
C1914      C1919   1.500   1_455  S
C1915      C1916   1.400       .  A
C1915      H1920   1.082       .  S
C1916      C1917   1.404       .  A
C1916      H1921   1.082       .  S
C1917      C1918   1.405   1_455  A
C1918      H1922   1.082       .  S
C1919      C1924   1.408       .  A
C1919      C1928   1.409   1_655  A
C1924      C1925   1.404       .  A
C1924      H1929   1.082       .  S
C1925      C1926   1.408       .  A
C1925      H1930   1.083       .  S
C1926      C1927   1.407   1_655  A
C1927      C1928   1.403       .  A
C1927      H1931   1.083       .  S
C1928      H1932   1.082       .  S
