geometry optimzed in LAMMPS
_audit_creation_date              2020-11-30 
_audit_creation_method            'lammps2cif' 
_symmetry_space_group_name_H-M    'P1' 
_symmetry_Int_Tables_number       1 
_symmetry_cell_setting            triclinic 
loop_ 
_symmetry_equiv_pos_as_xyz 
  x,y,z 
_cell_length_a                    28.13819737 
_cell_length_b                    28.135422693540587 
_cell_length_c                    28.022836676668874 
_cell_angle_alpha                 90.76138469888555 
_cell_angle_beta                  90.2825877322119 
_cell_angle_gamma                 90.01809770056168 
loop_ 
_atom_site_label 
_atom_site_type_symbol 
_atom_site_fract_x 
_atom_site_fract_y 
_atom_site_fract_z 
_atom_site_charge 
C1          C  0.15490728  0.15411706  0.16767475     0.45100
H2          H  0.17856703  0.17266339  0.19311357    -0.04000
C3          C  0.10218589  0.10588387  0.10976241     0.45100
H4          H  0.07965587  0.08608253  0.08533550    -0.04000
C5          C  0.13445053  0.10744797  0.19092603    -0.17700
C6          C  0.11001382  0.18359314  0.14989569    -0.17400
C7          C  0.18316697  0.13918822  0.12093701    -0.17800
C8          C  0.10436039  0.08212254  0.15975634    -0.17800
C9          C  0.08279358  0.15735578  0.11694154    -0.17300
C10         C  0.15444025  0.11151117  0.09108542    -0.17700
C11         C  0.83363170  0.65722703  0.35056536     0.45100
H12         H  0.81380878  0.68108718  0.32988318    -0.04000
C13         C  0.88443407  0.60008742  0.39990555     0.45100
H14         H  0.90775989  0.57572501  0.41925370    -0.04000
C15         C  0.84131018  0.60947794  0.32305540    -0.17700
C16         C  0.88295920  0.67968892  0.36386600    -0.17400
C17         C  0.80900975  0.64374596  0.39802491    -0.17800
C18         C  0.87420820  0.58132426  0.34727834    -0.17800
C19         C  0.90830670  0.65037909  0.39518804    -0.17300
C20         C  0.83417125  0.60914414  0.42333802    -0.17700
C21         C  0.95667535  0.25869931  0.97735196     0.86100
C22         C  0.98471233  0.29948089  0.95352602    -0.54200
C23         C  0.96582358  0.31611549  0.91179281     0.09000
C24         C  0.91934298  0.29171916  0.89830796     0.20000
C25         C  0.90581304  0.27961855  0.98360535    -0.54900
C26         C  0.88630108  0.29720179  0.94219971     0.09100
C27         C  0.94762028  0.22141554  0.93716737    -0.54400
C28         C  0.93106108  0.23819714  0.89450896     0.09700
H29         H  0.01758105  0.31360135  0.96845947     0.14200
H30         H  0.90527803  0.30645302  0.86532976    -0.00100
H31         H  0.88435664  0.27673052  0.01518126     0.14500
H32         H  0.95114668  0.18411514  0.94459681     0.14300
C33         C  0.74331325  0.46859704  0.55025179     0.86100
C34         C  0.69399920  0.45891057  0.52936889    -0.54200
C35         C  0.67435779  0.41740166  0.54243745     0.09000
C36         C  0.70432669  0.38895649  0.57844293     0.20000
C37         C  0.73347241  0.46613602  0.60554471    -0.54900
C38         C  0.71151307  0.42418626  0.62032759     0.09100
C39         C  0.77174487  0.42385747  0.53838191    -0.54400
C40         C  0.75347548  0.38225269  0.55462487     0.09700
H41         H  0.67474702  0.48336596  0.50667226     0.14200
H42         H  0.68881079  0.35528873  0.59006435    -0.00100
H43         H  0.74086756  0.49549555  0.62993525     0.14500
H44         H  0.80444449  0.42527898  0.51800435     0.14300
C45         C  0.54156626  0.04032306  0.74183275     0.86100
C46         C  0.56734823  0.01814745  0.78556383    -0.54200
C47         C  0.60792438  0.04080446  0.80058005     0.09000
C48         C  0.61703545  0.08617496  0.77270876     0.20000
C49         C  0.53089846  0.09145834  0.76072132    -0.54900
C50         C  0.57041972  0.11567281  0.77741910     0.09100
C51         C  0.58039023  0.04685725  0.70431719    -0.54400
C52         C  0.62047243  0.06908587  0.72032890     0.09700
H53         H  0.55310250  0.98884331  0.80570233     0.14200
H54         H  0.64933449  0.10512045  0.78411432    -0.00100
H55         H  0.49544475  0.10655685  0.76197284     0.14500
H56         H  0.57674450  0.03324376  0.66807096     0.14300
Zn57       Zn  0.87805390  0.13983481  0.61636989     1.49700
Zn58       Zn  0.92835716  0.12966803  0.52428664     1.49400
Zn59       Zn  0.98191323  0.10259626  0.62076806     1.49100
Zn60       Zn  0.89143004  0.04298601  0.58741446     1.49500
O61         O  0.92328201  0.10344237  0.58607210    -1.84500
O62         O  0.87190834  0.20271094  0.59026514    -0.75200
O63         O  0.99604176  0.15084126  0.51308129    -0.75000
O64         O  0.97280822  0.13642382  0.68475018    -0.74500
O65         O  0.88118520  0.18410067  0.51376062    -0.75200
O66         O  0.89448986  0.14768262  0.68400159    -0.74800
O67         O  0.03158586  0.13407024  0.58136552    -0.75400
O68         O  0.93796686  0.99546843  0.60495105    -0.74800
O69         O  0.91501731  0.07581782  0.48089904    -0.75500
O70         O  0.00381796  0.03415430  0.62685362    -0.74900
O71         O  0.87307221  0.02294745  0.52176179    -0.75400
O72         O  0.83495173  0.04061072  0.63136579    -0.75300
O73         O  0.81460455  0.11157514  0.60751727    -0.75100
C74         C  0.86564532  0.21164241  0.54661911     0.76700
C75         C  0.03332081  0.14989442  0.53906720     0.77200
C76         C  0.93451166  0.15022782  0.70497131     0.76200
C77         C  0.98122653  0.99580337  0.61761201     0.76600
C78         C  0.89189758  0.03704408  0.48335102     0.77700
C79         C  0.80437871  0.07356986  0.62853393     0.76700
C80         C  0.66458228  0.33332917  0.84379688     0.45100
H81         H  0.68793793  0.31173704  0.82036299    -0.04000
C82         C  0.61073781  0.38303451  0.89880615     0.45100
H83         H  0.58793647  0.40188497  0.92434330    -0.04000
C84         C  0.61908428  0.30436468  0.85979465    -0.17700
C85         C  0.69098562  0.35195073  0.89055776    -0.17400
C86         C  0.64615799  0.37970404  0.81874459    -0.17800
C87         C  0.59183741  0.33092984  0.89127363    -0.17800
C88         C  0.66242455  0.38126797  0.91882319    -0.17300
C89         C  0.61470339  0.40539222  0.84795050    -0.17700
C90         C  0.23005508  0.98757763  0.94352813     0.86100
C91         C  0.28029163  0.98926315  0.96465277    -0.54200
C92         C  0.30819970  0.95168194  0.95209275     0.09000
C93         C  0.28454027  0.91586457  0.91754711     0.20000
C94         C  0.23804304  0.98278153  0.88834308    -0.54900
C95         C  0.26767320  0.94523770  0.87466112     0.09100
C96         C  0.21244549  0.93774035  0.95789715    -0.54400
C97         C  0.23893265  0.90047587  0.94278613     0.09700
H98         H  0.29190027  0.01608955  0.99030789     0.14200
H99         H  0.30849885  0.88612205  0.90768173    -0.00100
H100        H  0.22187489  0.00676852  0.86302725     0.14500
H101        H  0.18154973  0.93066082  0.97929579     0.14300
C102        C  0.48502971  0.55385623  0.76567378     0.86100
C103        C  0.46466559  0.52305959  0.72544351    -0.54200
C104        C  0.42395525  0.53842860  0.70576243     0.09000
C105        C  0.40537434  0.58547123  0.72831058     0.20000
C106        C  0.48891712  0.60449323  0.74115363    -0.54900
C107        C  0.44568782  0.62242358  0.72245463     0.09100
C108        C  0.44505490  0.56386505  0.80121486    -0.54400
C109        C  0.40303920  0.57727218  0.78199979     0.09700
H110        H  0.48355731  0.49240202  0.71090885     0.14200
H111        H  0.37032625  0.59671529  0.71532371    -0.00100
H112        H  0.52172669  0.62386822  0.73901365     0.14500
H113        H  0.44891372  0.55722152  0.83918461     0.14300
C114        C  0.04894533  0.73487760  0.53602816     0.86100
C115        C  0.02631902  0.78282970  0.54814376    -0.54200
C116        C  0.04428627  0.80531025  0.58694781     0.09000
C117        C  0.08677149  0.77903970  0.60973687     0.20000
C118        C  0.10256038  0.75077188  0.52934364    -0.54900
C119        C  0.12291355  0.77439332  0.56913205     0.09100
C120        C  0.04986529  0.70655001  0.58280611    -0.54400
C121        C  0.07012081  0.72871380  0.62139477     0.09700
H122        H  0.99887233  0.79892819  0.52615779     0.14200
H123        H  0.10200607  0.79571482  0.64137100    -0.00100
H124        H  0.11979605  0.74905170  0.49517860     0.14500
H125        H  0.03391570  0.67153838  0.58499537     0.14300
Zn126      Zn  0.13506794  0.56089858  0.87007254     1.49700
Zn127      Zn  0.08326920  0.64932123  0.91312636     1.49400
Zn128      Zn  0.07750346  0.55088310  0.96417059     1.49100
Zn129      Zn  0.17201721  0.60692801  0.97139127     1.49500
O130        O  0.11759362  0.59217271  0.92951685    -1.84500
O131        O  0.12246634  0.60186491  0.81263099    -0.75200
O132        O  0.01990513  0.65332376  0.94513474    -0.75000
O133        O  0.05690484  0.49658981  0.92467045    -0.74500
O134        O  0.07404106  0.65630558  0.84244619    -0.75200
O135        O  0.10101212  0.49774202  0.85914432    -0.74800
O136        O  0.01958501  0.58459764  0.98352280    -0.75400
O137        O  0.16966195  0.57293414  0.03487626    -0.74800
O138        O  0.12206656  0.70485208  0.93335601    -0.75500
O139        O  0.10729521  0.52592196  0.02276686    -0.74900
O140        O  0.17769472  0.67799632  0.98168507    -0.75400
O141        O  0.23198504  0.58648902  0.93856835    -0.75300
O142        O  0.20433524  0.55332546  0.87179796    -0.75100
C143        C  0.09571219  0.63777947  0.80709172     0.76700
C144        C  0.00026909  0.62370611  0.97261230     0.77200
C145        C  0.06904089  0.47888373  0.88475949     0.76200
C146        C  0.14207532  0.53984050  0.04826291     0.76600
C147        C  0.15723405  0.71243439  0.96097235     0.77700
C148        C  0.23888201  0.56587145  0.89857183     0.76700
C149        C  0.43964812  0.25892364  0.02217259     0.86100
C150        C  0.46815547  0.21874605  0.04498721    -0.54200
C151        C  0.45123157  0.20110534  0.08641311     0.09000
C152        C  0.40439618  0.22589677  0.10194319     0.20000
C153        C  0.38859523  0.23627035  0.01641485    -0.54900
C154        C  0.36987052  0.21925403  0.05905268     0.09100
C155        C  0.42963619  0.29611951  0.06108428    -0.54400
C156        C  0.41527143  0.27968260  0.10386824     0.09700
H157        H  0.49971219  0.20418940  0.02799267     0.14200
H158        H  0.38944202  0.21395943  0.13613663    -0.00100
H159        H  0.36766254  0.23640505  0.98397484     0.14500
H160        H  0.43654375  0.33324567  0.05488413     0.14300
C161        C  0.25606592  0.03522944  0.45595278     0.86100
C162        C  0.21772808  0.06751012  0.48026250    -0.54200
C163        C  0.20489060  0.10790619  0.45615693     0.09000
C164        C  0.22931272  0.11040613  0.40755726     0.20000
C165        C  0.23139611  0.02352892  0.40676981    -0.54900
C166        C  0.21709662  0.06319725  0.38127774     0.09100
C167        C  0.29641519  0.06936472  0.44288377    -0.54400
C168        C  0.28271703  0.10918043  0.41925711     0.09700
H169        H  0.19946396  0.05769960  0.51261106     0.14200
H170        H  0.22039077  0.14188266  0.38676840    -0.00100
H171        H  0.22506398  0.98754933  0.39388424     0.14500
H172        H  0.33294586  0.06327967  0.45376703     0.14300
C173        C  0.00706940  0.44176483  0.26121221     0.86100
C174        C  0.03800534  0.46899492  0.22465675    -0.54200
C175        C  0.08147732  0.44973013  0.21401359     0.09000
C176        C  0.08999386  0.40343388  0.24160009     0.20000
C177        C  0.00377966  0.39057490  0.23954095    -0.54900
C178        C  0.04723324  0.37031129  0.22854938     0.09100
C179        C  0.04078488  0.43742498  0.30410004    -0.54400
C180        C  0.08400888  0.41885140  0.29427069     0.09700
H181        H  0.02768349  0.50220341  0.20928891     0.14200
H182        H  0.12505783  0.38686259  0.23623936    -0.00100
H183        H  0.97028776  0.37247935  0.23292879     0.14500
H184        H  0.03274392  0.45204884  0.33916906     0.14300
Zn185      Zn  0.36324039  0.46015827  0.34577869     1.49700
Zn186      Zn  0.41139741  0.46492587  0.44070187     1.49400
Zn187      Zn  0.33977633  0.39881974  0.44452096     1.49100
Zn188      Zn  0.42468572  0.37513387  0.37892512     1.49500
O189        O  0.38324292  0.42317529  0.39915242    -1.84500
O190        O  0.40391622  0.52253569  0.33777978    -0.75200
O191        O  0.36597980  0.49258045  0.48636221    -0.75000
O192        O  0.27801411  0.42274993  0.42109891    -0.74500
O193        O  0.43821765  0.51590449  0.40784801    -0.75200
O194        O  0.29257523  0.46478968  0.35463747    -0.74800
O195        O  0.35702057  0.42094734  0.51265556    -0.75400
O196        O  0.39248242  0.31180560  0.38434900    -0.74800
O197        O  0.46559807  0.43297636  0.47128911    -0.75500
O198        O  0.33817221  0.32721837  0.43991346    -0.74900
O199        O  0.48101847  0.37340269  0.42127820    -0.75400
O200        O  0.44182147  0.38778193  0.31108704    -0.75300
O201        O  0.37328049  0.41831070  0.28802294    -0.75100
C202        C  0.43480802  0.53653119  0.36854520     0.76700
C203        C  0.36487185  0.46480147  0.52108432     0.77200
C204        C  0.26431619  0.44487899  0.38400746     0.76200
C205        C  0.35982746  0.29819881  0.41229696     0.76600
C206        C  0.49169476  0.39852152  0.45770628     0.77700
C207        C  0.40999272  0.39332019  0.27932574     0.76700
C208        C  0.34056356  0.84139712  0.66205506     0.45100
H209        H  0.31749791  0.81885258  0.68347138    -0.04000
C210        C  0.39318723  0.89314953  0.60848288     0.45100
H211        H  0.41539230  0.91495178  0.58481105    -0.04000
C212        C  0.35541307  0.88942485  0.68771952    -0.17700
C213        C  0.38769062  0.81522288  0.64783905    -0.17400
C214        C  0.31503814  0.85535113  0.61457607    -0.17800
C215        C  0.38796864  0.91448504  0.66056191    -0.17800
C216        C  0.41365028  0.84149260  0.61533230    -0.17300
C217        C  0.34121679  0.88713671  0.58797348    -0.17700
C218        C  0.98465736  0.93305848  0.24180394     0.86100
C219        C  0.97647806  0.95245700  0.29274111    -0.54200
C220        C  0.93601726  0.93745443  0.31326346     0.09000
C221        C  0.90698942  0.90262645  0.28309288     0.20000
C222        C  0.98233865  0.87776669  0.24782888    -0.54900
C223        C  0.94157981  0.86157847  0.27086465     0.09100
C224        C  0.93824131  0.94525286  0.21561549    -0.54400
C225        C  0.89772665  0.92875140  0.23613674     0.09700
H226        H  0.99850824  0.97877362  0.31083384     0.14200
H227        H  0.87449311  0.89129324  0.30185095    -0.00100
H228        H  0.01024417  0.85449862  0.23498435     0.14500
H229        H  0.93730653  0.96567213  0.18298698     0.14300
C230        C  0.54787558  0.76134252  0.47760668     0.86100
C231        C  0.51591917  0.72499276  0.45061184    -0.54200
C232        C  0.53307446  0.70894149  0.40817790     0.09000
C233        C  0.57976155  0.73350168  0.39383661     0.20000
C234        C  0.59775724  0.73733368  0.47870020    -0.54900
C235        C  0.61554064  0.72332344  0.43449585     0.09100
C236        C  0.55225372  0.80136531  0.44136638    -0.54400
C237        C  0.56861864  0.78694954  0.39806098     0.09700
H238        H  0.48266106  0.71121549  0.46395196     0.14200
H239        H  0.59214419  0.72384542  0.35755896    -0.00100
H240        H  0.61677348  0.73157521  0.51187371     0.14500
H241        H  0.54057285  0.83760464  0.44797065     0.14300
C242        C  0.74834726  0.53240544  0.04631034     0.86100
C243        C  0.79758585  0.54360277  0.02634632    -0.54200
C244        C  0.81819568  0.58385307  0.04443388     0.09000
C245        C  0.78832413  0.60899943  0.08279580     0.20000
C246        C  0.75585464  0.53121681  0.10171638    -0.54900
C247        C  0.77807598  0.57129208  0.12163779     0.09100
C248        C  0.71915597  0.57815269  0.04173341    -0.54400
C249        C  0.73993426  0.61813838  0.05903492     0.09700
H250        H  0.81430560  0.52172333  0.99896803     0.14200
H251        H  0.80586098  0.64190079  0.09534848    -0.00100
H252        H  0.74157946  0.50292297  0.12316603     0.14500
H253        H  0.68287476  0.57872853  0.02841935     0.14300
Zn254      Zn  0.58845762  0.88455108  0.03542109     1.49700
Zn255      Zn  0.54682762  0.93022946  0.13251256     1.49400
Zn256      Zn  0.64356387  0.87777695  0.13150721     1.49100
Zn257      Zn  0.63551167  0.97687610  0.08501389     1.49500
O258        O  0.60337772  0.91706998  0.09536613    -1.84500
O259        O  0.51814520  0.88693631  0.02416046    -0.75200
O260        O  0.54452669  0.89587579  0.19474718    -0.75000
O261        O  0.65545617  0.81659066  0.10108639    -0.74500
O262        O  0.48988243  0.92222560  0.08969630    -0.75200
O263        O  0.61464261  0.81673305  0.03294787    -0.74800
O264        O  0.61621621  0.86438996  0.19365199    -0.75400
O265        O  0.69731631  0.98347184  0.12128868    -0.74800
O266        O  0.54285823  0.99787051  0.15211096    -0.75500
O267        O  0.70508415  0.90817642  0.14310241    -0.74900
O268        O  0.59115077  0.03038281  0.10016640    -0.75400
O269        O  0.65086885  0.98330765  0.01688939    -0.75300
O270        O  0.61538284  0.92229013  0.98116710    -0.75100
C271        C  0.48433224  0.90650752  0.04717519     0.76700
C272        C  0.57787195  0.87342891  0.21526638     0.77200
C273        C  0.64202724  0.79640374  0.06279932     0.76200
C274        C  0.72119511  0.95003842  0.13980882     0.76600
C275        C  0.55699614  0.03375492  0.12955066     0.77700
C276        C  0.63880223  0.96098468  0.97922746     0.76700
C277        C  0.66906234  0.66767781  0.08042495    -0.02300
C278        C  0.71414053  0.66414697  0.05840177     0.07400
C279        C  0.73295915  0.70377108  0.03450924    -0.02400
C280        C  0.70675528  0.74616514  0.03221153    -0.02400
C281        C  0.66175995  0.74920434  0.05353582     0.07600
C282        C  0.64285171  0.71000794  0.07752149    -0.02600
Br283      Br  0.58209127  0.71557414  0.10878807    -0.01100
Br284      Br  0.64531358  0.61673749  0.11948743    -0.01200
Br285      Br  0.73364077  0.80174589  0.00271059    -0.01100
Br286      Br  0.79483377  0.70162337  0.00585939    -0.01100
C287        C  0.61396817  0.83147849  0.33769357    -0.02300
C288        C  0.57001139  0.81841056  0.35663656     0.07400
C289        C  0.52762797  0.83137765  0.33334866    -0.02400
C290        C  0.52934285  0.84860127  0.28653973    -0.02400
C291        C  0.57393446  0.85839301  0.26549955     0.07600
C292        C  0.61604999  0.85336675  0.29325773    -0.02600
Br293      Br  0.67724340  0.87755887  0.27284645    -0.01100
Br294      Br  0.67145380  0.82116366  0.37354279    -0.01200
Br295      Br  0.47032972  0.85448810  0.25150111    -0.01100
Br296      Br  0.46740228  0.82677992  0.36591126    -0.01100
C297        C  0.80652351  0.93519779  0.13706518    -0.02300
C298        C  0.76844106  0.95803830  0.15974037     0.07400
C299        C  0.77171108  0.97106732  0.20805629    -0.02400
C300        C  0.81166692  0.95771026  0.23504251    -0.02400
C301        C  0.85072372  0.93519602  0.21223567     0.07600
C302        C  0.84648678  0.92184722  0.16357299    -0.02600
Br303      Br  0.89013010  0.87672059  0.13552178    -0.01100
Br304      Br  0.80252185  0.92061005  0.06963929    -0.01200
Br305      Br  0.80681577  0.96329015  0.30324114    -0.01100
Br306      Br  0.71952256  0.00515514  0.23726581    -0.01100
C307        C  0.49773634  0.84515472  0.57664683    -0.02300
C308        C  0.45443922  0.82044718  0.58572180     0.07400
C309        C  0.45170239  0.77310233  0.56788356    -0.02400
C310        C  0.49110707  0.75095686  0.54747818    -0.02400
C311        C  0.52673302  0.77820843  0.52638921     0.07600
C312        C  0.53257330  0.82498422  0.54533320    -0.02600
Br313      Br  0.59102085  0.85867545  0.53365068    -0.01100
Br314      Br  0.51151079  0.90503636  0.60766612    -0.01200
Br315      Br  0.49846506  0.68341379  0.55455013    -0.01100
Br316      Br  0.39328812  0.74071427  0.55537471    -0.01100
C317        C  0.45624051  0.61931465  0.33905132    -0.02300
C318        C  0.46812055  0.57727253  0.36318600     0.07400
C319        C  0.50874415  0.57760372  0.39334755    -0.02400
C320        C  0.52708402  0.62065693  0.41043000    -0.02400
C321        C  0.51466000  0.66333871  0.38776106     0.07600
C322        C  0.48181430  0.66168705  0.34933523    -0.02600
Br323      Br  0.47063666  0.71699745  0.31176701    -0.01100
Br324      Br  0.40436629  0.61988391  0.29395667    -0.01200
Br325      Br  0.56816030  0.61965906  0.46604751    -0.01100
Br326      Br  0.53963994  0.51907091  0.41237359    -0.01100
C327        C  0.19718783  0.39322177  0.36189071    -0.02300
C328        C  0.21463193  0.43956785  0.37016289     0.07400
C329        C  0.18615288  0.47908649  0.36055582    -0.02400
C330        C  0.14044650  0.47223974  0.34130017    -0.02400
C331        C  0.12529944  0.42601353  0.32701535     0.07600
C332        C  0.15287841  0.38677670  0.34018054    -0.02600
Br333      Br  0.12943743  0.32379950  0.33155622    -0.01100
Br334      Br  0.23547385  0.33775440  0.37576164    -0.01200
Br335      Br  0.09921780  0.52636983  0.33845790    -0.01100
Br336      Br  0.21030806  0.54231076  0.37316360    -0.01100
C337        C  0.30951555  0.95843987  0.47152404    -0.02300
C338        C  0.27658271  0.99357785  0.48851820     0.07400
C339        C  0.27131878  0.99442711  0.53912064    -0.02400
C340        C  0.28411820  0.95534763  0.56753629    -0.02400
C341        C  0.31830510  0.92181012  0.55195212     0.07600
C342        C  0.33303254  0.92618240  0.50363797    -0.02600
Br343      Br  0.38735460  0.89040311  0.48184365    -0.01100
Br344      Br  0.32692694  0.95693544  0.40517432    -0.01200
Br345      Br  0.25751877  0.95404454  0.63027677    -0.01100
Br346      Br  0.27161401  0.05332864  0.57468898    -0.01100
C347        C  0.35005188  0.22160003  0.45486421    -0.02300
C348        C  0.34640906  0.24758987  0.41249867     0.07400
C349        C  0.32938972  0.22534489  0.37051434    -0.02400
C350        C  0.31267721  0.17824860  0.37175496    -0.02400
C351        C  0.31271711  0.15290829  0.41505393     0.07600
C352        C  0.33441802  0.17410146  0.45604844    -0.02600
Br353      Br  0.34299045  0.14029863  0.51495621    -0.01100
Br354      Br  0.37637310  0.25153219  0.51169877    -0.01200
Br355      Br  0.29084936  0.14870682  0.31323253    -0.01100
Br356      Br  0.32555512  0.26055959  0.31181716    -0.01100
C357        C  0.52844312  0.16282087  0.11377134    -0.02300
C358        C  0.47783961  0.16153537  0.11111587     0.07400
C359        C  0.45458093  0.12110608  0.12970054    -0.02400
C360        C  0.48081949  0.07985143  0.14042805    -0.02400
C361        C  0.53077507  0.07920862  0.13401478     0.07600
C362        C  0.55455248  0.12200468  0.12508690    -0.02600
Br363      Br  0.62339153  0.12504228  0.12915012    -0.01100
Br364      Br  0.56383152  0.22061727  0.10561059    -0.01200
Br365      Br  0.44649409  0.02398367  0.16117101    -0.01100
Br366      Br  0.38735656  0.11987649  0.14170860    -0.01100
C367        C  0.43352178  0.32065096  0.23343011    -0.02300
C368        C  0.41412787  0.36688969  0.23350493     0.07400
C369        C  0.39662982  0.38591306  0.19051997    -0.02400
C370        C  0.39648382  0.35818948  0.14811678    -0.02400
C371        C  0.41449708  0.31065410  0.14823608     0.07600
C372        C  0.43494082  0.29363259  0.19115765    -0.02600
Br373      Br  0.47035590  0.23543717  0.19425754    -0.01100
Br374      Br  0.45707597  0.29153688  0.29169264    -0.01200
Br375      Br  0.37075547  0.38792692  0.09149523    -0.01100
Br376      Br  0.37441308  0.45109300  0.18892416    -0.01100
C377        C  0.94453250  0.63245079  0.03921184    -0.02300
C378        C  0.95220708  0.63151319  0.98990847     0.07400
C379        C  0.91447776  0.62287914  0.95822188    -0.02400
C380        C  0.87019174  0.60884741  0.97589830    -0.02400
C381        C  0.86359782  0.60355948  0.02576064     0.07600
C382        C  0.90055640  0.61793017  0.05735813    -0.02600
Br383      Br  0.89454548  0.61356657  0.12532537    -0.01100
Br384      Br  0.99588866  0.65159547  0.08134521    -0.01200
Br385      Br  0.81955392  0.59795143  0.93055272    -0.01100
Br386      Br  0.92503792  0.62657351  0.89023359    -0.01100
C387        C  0.15163035  0.46932722  0.10004599    -0.02300
C388        C  0.14688650  0.51870530  0.09573502     0.07400
C389        C  0.13537218  0.54626252  0.13590688    -0.02400
C390        C  0.11774159  0.52406829  0.17689282    -0.02400
C391        C  0.11512431  0.47339437  0.17926691     0.07600
C392        C  0.13923258  0.44701190  0.14298592    -0.02600
Br393      Br  0.15961239  0.38224763  0.15031293    -0.01100
Br394      Br  0.17400880  0.43249686  0.04596962    -0.01200
Br395      Br  0.09740710  0.56542838  0.22806846    -0.01100
Br396      Br  0.13982997  0.61479521  0.13278646    -0.01100
C397        C  0.07546266  0.73162446  0.71321931    -0.02300
C398        C  0.07756336  0.70528551  0.66939403     0.07400
C399        C  0.08942079  0.65611638  0.67205103    -0.02400
C400        C  0.09142748  0.63317513  0.71659260    -0.02400
C401        C  0.09098789  0.66019110  0.75939621     0.07600
C402        C  0.08718419  0.70998813  0.75664359    -0.02600
Br403      Br  0.10322577  0.75001654  0.81133333    -0.01100
Br404      Br  0.05324093  0.79624612  0.71869473    -0.01200
Br405      Br  0.09345637  0.56452943  0.71804875    -0.01100
Br406      Br  0.10992236  0.62012498  0.61653944    -0.01100
C407        C  0.18098223  0.83146098  0.61384072    -0.02300
C408        C  0.17238975  0.79817305  0.57547626     0.07400
C409        C  0.21337481  0.78585916  0.54842600    -0.02400
C410        C  0.25758556  0.80974210  0.55698781    -0.02400
C411        C  0.26609199  0.83563423  0.60035596     0.07600
C412        C  0.22694176  0.84009874  0.63116411    -0.02600
Br413      Br  0.23170820  0.85856190  0.69752835    -0.01100
Br414      Br  0.13662322  0.87886443  0.63659742    -0.01200
Br415      Br  0.30545163  0.80451669  0.50898197    -0.01100
Br416      Br  0.21283320  0.73381803  0.50298686    -0.01100
C417        C  0.43074331  0.53492128  0.61735671    -0.02300
C418        C  0.40915090  0.51804201  0.65896250     0.07400
C419        C  0.38031327  0.47711104  0.65554452    -0.02400
C420        C  0.36274171  0.46171425  0.61090181    -0.02400
C421        C  0.37956380  0.48286628  0.56883416     0.07600
C422        C  0.41572593  0.51814849  0.57246377    -0.02600
Br423      Br  0.44961162  0.54125030  0.51741681    -0.01100
Br424      Br  0.48561528  0.57631165  0.62182294    -0.01200
Br425      Br  0.31549841  0.41191479  0.60855285    -0.01100
Br426      Br  0.37345500  0.43569257  0.70923348    -0.01100
C427        C  0.39302757  0.67965620  0.67212026    -0.02300
C428        C  0.43435140  0.67237184  0.70130087     0.07400
C429        C  0.46014072  0.71465605  0.71291435    -0.02400
C430        C  0.44814603  0.75917373  0.69155921    -0.02400
C431        C  0.40330057  0.76653606  0.66857459     0.07600
C432        C  0.37400278  0.72572826  0.66440030    -0.02600
Br433      Br  0.30873588  0.73002604  0.64302173    -0.01100
Br434      Br  0.36758255  0.63068462  0.63037776    -0.01200
Br435      Br  0.49503657  0.80865506  0.69443273    -0.01100
Br436      Br  0.50911605  0.71517159  0.76132380    -0.01100
C437        C  0.35981873  0.60248711  0.85603890    -0.02300
C438        C  0.35951238  0.57808889  0.81163032     0.07400
C439        C  0.32270883  0.54554908  0.80150146    -0.02400
C440        C  0.29173941  0.53215825  0.83745879    -0.02400
C441        C  0.28723002  0.56094303  0.87854809     0.07600
C442        C  0.32327887  0.59464026  0.88924236    -0.02600
Br443      Br  0.32480499  0.62896673  0.94927089    -0.01100
Br444      Br  0.40728005  0.65074972  0.86888255    -0.01200
Br445      Br  0.25577493  0.47379815  0.83012622    -0.01100
Br446      Br  0.30516739  0.52761730  0.73758670    -0.01100
C447        C  0.39642203  0.94416523  0.95184113    -0.02300
C448        C  0.35337238  0.94152940  0.97675678     0.07400
C449        C  0.35301374  0.92701045  0.02478853    -0.02400
C450        C  0.39530343  0.91166100  0.04655766    -0.02400
C451        C  0.43887783  0.91562674  0.02222145     0.07600
C452        C  0.43934103  0.93371581  0.97520262    -0.02600
Br453      Br  0.49828780  0.94942790  0.94371194    -0.01100
Br454      Br  0.39689069  0.96396832  0.88618140    -0.01200
Br455      Br  0.39268501  0.88265337  0.10857451    -0.01100
Br456      Br  0.29433519  0.92608398  0.06053415    -0.01100
C457        C  0.29153419  0.88492134  0.81002346    -0.02300
C458        C  0.28580680  0.93303695  0.82460099     0.07400
C459        C  0.30477013  0.96782230  0.79418072    -0.02400
C460        C  0.32430354  0.95493294  0.74891027    -0.02400
C461        C  0.33422986  0.90608875  0.73638906     0.07600
C462        C  0.32066809  0.87203525  0.77098162    -0.02600
Br463      Br  0.34579097  0.80788157  0.77125422     0.02100
Br464      Br  0.25542729  0.83485380  0.83886235    -0.01200
Br465      Br  0.33305484  0.00694992  0.70607226    -0.01100
Br466      Br  0.30771134  0.03349715  0.81550700    -0.01100
C467        C  0.24588431  0.81487865  0.97011851    -0.02300
C468        C  0.21994656  0.85118670  0.94757240     0.07400
C469        C  0.17253647  0.84217573  0.93311964    -0.02400
C470        C  0.14995746  0.79975250  0.94532384    -0.02400
C471        C  0.17658067  0.76185588  0.96476909     0.07600
C472        C  0.22425874  0.77069520  0.97937974    -0.02600
Br473      Br  0.26074874  0.72433151  0.01440499    -0.01100
Br474      Br  0.31198991  0.82335658  0.98591399    -0.01200
Br475      Br  0.08134569  0.79684997  0.93891653    -0.01100
Br476      Br  0.13974700  0.88490508  0.89038813    -0.01100
C477        C  0.71245344  0.40473511  0.99690654    -0.02300
C478        C  0.67928478  0.41603119  0.95931029     0.07400
C479        C  0.66751773  0.46510373  0.95611012    -0.02400
C480        C  0.69657387  0.49993528  0.97663776    -0.02400
C481        C  0.72473773  0.49031746  0.01754284     0.07600
C482        C  0.73398708  0.44146591  0.02587856    -0.02600
Br483      Br  0.78212964  0.42424888  0.07157807    -0.01100
Br484      Br  0.72780199  0.33999533  0.01356706    -0.01200
Br485      Br  0.70445971  0.55589374  0.93754864    -0.01100
Br486      Br  0.60806500  0.49087949  0.93438474    -0.01100
C487        C  0.51626399  0.30542780  0.00151515    -0.02300
C488        C  0.47397102  0.28162867  0.98411812     0.07400
C489        C  0.47145833  0.27411251  0.93359088    -0.02400
C490        C  0.50707234  0.29303796  0.90252124    -0.02400
C491        C  0.55016617  0.31245332  0.92114920     0.07600
C492        C  0.55417664  0.31559775  0.97101405    -0.02600
Br493      Br  0.61511168  0.32441228  0.00006295    -0.01100
Br494      Br  0.52800519  0.32580954  0.06779448    -0.01200
Br495      Br  0.49493408  0.29464176  0.83478595    -0.01100
Br496      Br  0.42342820  0.23388714  0.90553069    -0.01100
C497        C  0.60330727  0.48897585  0.80951926    -0.02300
C498        C  0.58432131  0.44850274  0.83286895     0.07400
C499        C  0.53453220  0.44877736  0.84050954    -0.02400
C500        C  0.50458733  0.47983509  0.81553394    -0.02400
C501        C  0.52262656  0.52074397  0.79112059     0.07600
C502        C  0.57308193  0.52465137  0.78907279    -0.02600
Br503      Br  0.60234207  0.57518606  0.75446606    -0.01100
Br504      Br  0.67094968  0.49966608  0.81212735    -0.01200
Br505      Br  0.43801425  0.45967130  0.81245817    -0.01100
Br506      Br  0.50345736  0.41054492  0.88776922    -0.01100
C507        C  0.92101336  0.93612546  0.40035472    -0.02300
C508        C  0.91825992  0.96012113  0.35684169     0.07400
C509        C  0.90083875  0.00701788  0.35489515    -0.02400
C510        C  0.88491708  0.02948597  0.39643867    -0.02400
C511        C  0.89064231  0.00698182  0.44057659     0.07600
C512        C  0.90731392  0.95957770  0.44257307    -0.02600
Br513      Br  0.91677636  0.92808014  0.50279112    -0.01100
Br514      Br  0.94963241  0.87378371  0.40268628    -0.01200
Br515      Br  0.85695890  0.09225984  0.39318243    -0.01100
Br516      Br  0.90053209  0.04196942  0.29595475    -0.01100
C517        C  0.13201391  0.16342315  0.44839662    -0.02300
C518        C  0.16902442  0.14328290  0.47591599     0.07400
C519        C  0.16642525  0.15122396  0.52546855    -0.02400
C520        C  0.12230342  0.15982165  0.54725802    -0.02400
C521        C  0.08074035  0.16208036  0.51860636     0.07600
C522        C  0.08685488  0.17039587  0.46918549    -0.02600
Br523      Br  0.03519402  0.19249410  0.42939461    -0.01100
Br524      Br  0.14387044  0.19163218  0.38744091    -0.01200
Br525      Br  0.12041123  0.17009215  0.61561384    -0.01100
Br526      Br  0.22405279  0.16067570  0.56102292    -0.01100
C527        C  0.04945069  0.89204804  0.56967733    -0.02300
C528        C  0.03035065  0.85493696  0.59723456     0.07400
C529        C  0.99497661  0.86514217  0.63115778    -0.02400
C530        C  0.98395319  0.91245561  0.64259160    -0.02400
C531        C  0.00498720  0.94966958  0.61712914     0.07600
C532        C  0.03757441  0.93945890  0.58035363    -0.02600
Br533      Br  0.06261443  0.98990216  0.54155051    -0.01100
Br534      Br  0.09074936  0.87824572  0.51622107    -0.01200
Br535      Br  0.93726050  0.92656817  0.69112601    -0.01100
Br536      Br  0.95489059  0.81548243  0.65519257    -0.01100
C537        C  0.43595484  0.99374576  0.66045917    -0.02300
C538        C  0.42452953  0.94942843  0.68197239     0.07400
C539        C  0.45234659  0.93697386  0.72223824    -0.02400
C540        C  0.49411176  0.96167810  0.73299777    -0.02400
C541        C  0.49971885  0.00981158  0.72037514     0.07600
C542        C  0.47001695  0.02535905  0.68221531    -0.02600
Br543      Br  0.47808916  0.08809960  0.65650954    -0.01100
Br544      Br  0.40329192  0.01319621  0.60317099    -0.01200
Br545      Br  0.54824256  0.92035408  0.73951812    -0.01100
Br546      Br  0.43921998  0.88589110  0.76482158    -0.01100
C547        C  0.65148221  0.03248411  0.92693739    -0.02300
C548        C  0.64864905  0.98241446  0.93221636     0.07400
C549        C  0.65176284  0.95332971  0.89099472    -0.02400
C550        C  0.64582690  0.97363319  0.84580397    -0.02400
C551        C  0.63729213  0.02280588  0.84161508     0.07600
C552        C  0.64939374  0.05207543  0.88109800    -0.02600
Br553      Br  0.67267923  0.11575672  0.87337749    -0.01100
Br554      Br  0.65511426  0.07624943  0.98086669    -0.01200
Br555      Br  0.65660813  0.93563474  0.78964583    -0.01100
Br556      Br  0.66590260  0.88632348  0.89600412    -0.01100
C557        C  0.69418834  0.11141114  0.69368403    -0.02300
C558        C  0.66615747  0.06978740  0.69301366     0.07400
C559        C  0.68450611  0.02824144  0.66989882    -0.02400
C560        C  0.72969678  0.02920107  0.64830136    -0.02400
C561        C  0.75775564  0.07049402  0.65164121     0.07600
C562        C  0.74023964  0.11114069  0.67550598    -0.02600
Br563      Br  0.77989691  0.16685089  0.68631903    -0.01100
Br564      Br  0.67011842  0.17127497  0.71564558    -0.01200
Br565      Br  0.75243394  0.97443810  0.61269784    -0.01100
Br566      Br  0.65034740  0.96868677  0.66795350    -0.01100
C567        C  0.57311860  0.17210804  0.84943918    -0.02300
C568        C  0.57008545  0.16507333  0.79971274     0.07400
C569        C  0.57654004  0.20462147  0.77097908    -0.02400
C570        C  0.59775446  0.24662976  0.78970375    -0.02400
C571        C  0.60419902  0.25453170  0.83980066     0.07600
C572        C  0.59105583  0.21552639  0.86952366    -0.02600
Br573      Br  0.60457583  0.21564790  0.93692560    -0.01100
Br574      Br  0.54797948  0.12305998  0.88968137    -0.01200
Br575      Br  0.62416550  0.28746054  0.74349431    -0.01100
Br576      Br  0.55387203  0.20124418  0.70569970    -0.01100
C577        C  0.62332288  0.38222521  0.47875554    -0.02300
C578        C  0.62735223  0.40461739  0.52380257     0.07400
C579        C  0.58673577  0.42296614  0.54637130    -0.02400
C580        C  0.54196465  0.41006801  0.52942299    -0.02400
C581        C  0.53715592  0.39117515  0.48279898     0.07600
C582        C  0.57832447  0.37639672  0.45752357    -0.02600
Br583      Br  0.57542392  0.35240363  0.39247140    -0.01100
Br584      Br  0.67985747  0.36827121  0.44214016    -0.01200
Br585      Br  0.48813028  0.41724590  0.57139837    -0.01100
Br586      Br  0.59141433  0.47214219  0.59524020    -0.01100
C587        C  0.72656521  0.41171894  0.70936980    -0.02300
C588        C  0.69400391  0.41364477  0.67113332     0.07400
C589        C  0.64641992  0.39950316  0.68187218    -0.02400
C590        C  0.62984657  0.39822573  0.72969020    -0.02400
C591        C  0.66262463  0.39352891  0.76803836     0.07600
C592        C  0.71187110  0.39662538  0.75537408    -0.02600
Br593      Br  0.76146583  0.37455787  0.79624039    -0.01100
Br594      Br  0.79330087  0.42158801  0.69672254    -0.01200
Br595      Br  0.56200813  0.39134960  0.73923405    -0.01100
Br596      Br  0.60830754  0.36300439  0.63737839    -0.01100
C597        C  0.83154971  0.33798430  0.55840395    -0.02300
C598        C  0.78147292  0.33669182  0.55031139     0.07400
C599        C  0.76045895  0.29244014  0.53652064    -0.02400
C600        C  0.78922388  0.25170249  0.53035055    -0.02400
C601        C  0.83874407  0.25474882  0.53638986     0.07600
C602        C  0.85983607  0.29805364  0.54894155    -0.02600
Br603      Br  0.92823329  0.30093391  0.55678108    -0.01100
Br604      Br  0.86264129  0.39084187  0.59006904    -0.01200
Br605      Br  0.76091736  0.19022433  0.51697195    -0.01100
Br606      Br  0.69293051  0.28417094  0.52774875    -0.01100
C607        C  0.96669832  0.39650437  0.86962269    -0.02300
C608        C  0.98964519  0.35366126  0.88245107     0.07400
C609        C  0.03874769  0.35021209  0.87327882    -0.02400
C610        C  0.06638465  0.39152181  0.86940668    -0.02400
C611        C  0.04369966  0.43585766  0.86934708     0.07600
C612        C  0.99402201  0.43794522  0.86436711    -0.02600
Br613      Br  0.96395644  0.49828804  0.85211871    -0.01100
Br614      Br  0.90071964  0.39910199  0.85174183    -0.01200
Br615      Br  0.13467506  0.38742844  0.86817488    -0.01100
Br616      Br  0.06515630  0.29023174  0.85445627    -0.01100
C617        C  0.82209473  0.35958814  0.93435236    -0.02300
C618        C  0.83508793  0.31142243  0.93659134     0.07400
C619        C  0.80073705  0.27673861  0.92532077    -0.02400
C620        C  0.75556852  0.28989806  0.90731512    -0.02400
C621        C  0.74240570  0.33853808  0.90275793     0.07600
C622        C  0.77787861  0.37327134  0.91423730    -0.02600
Br623      Br  0.77011298  0.43927985  0.89778171    -0.01100
Br624      Br  0.86249399  0.40633074  0.96512289    -0.01200
Br625      Br  0.71429194  0.23946154  0.88669813    -0.01100
Br626      Br  0.81599121  0.21042180  0.93471532    -0.01100
C627        C  0.95892900  0.17003395  0.83717470    -0.02300
C628        C  0.92828946  0.20973723  0.84784556     0.07400
C629        C  0.89883119  0.22619459  0.80992601    -0.02400
C630        C  0.90684513  0.21127700  0.76286964    -0.02400
C631        C  0.93525641  0.17131694  0.75337369     0.07600
C632        C  0.96000409  0.14975125  0.79076950    -0.02600
Br633      Br  0.99485795  0.09145931  0.77818337    -0.01100
Br634      Br  0.00104404  0.14025408  0.88225039    -0.01200
Br635      Br  0.88081087  0.24847649  0.71106357    -0.01100
Br636      Br  0.84043801  0.26091493  0.81927829    -0.01100
C637        C  0.80374382  0.54213014  0.20564379    -0.02300
C638        C  0.78878343  0.57955921  0.17522943     0.07400
C639        C  0.78179502  0.62476549  0.19793902    -0.02400
C640        C  0.78955268  0.63139999  0.24761451    -0.02400
C641        C  0.81490514  0.59710753  0.27491911     0.07600
C642        C  0.81294968  0.55033356  0.25512896    -0.02600
Br643      Br  0.80552531  0.49685256  0.29680535    -0.01100
Br644      Br  0.81635785  0.47917039  0.18105449    -0.01200
Br645      Br  0.74326023  0.67373588  0.27682931    -0.01100
Br646      Br  0.75795487  0.67995298  0.16512519    -0.01100
C647        C  0.71913312  0.64164560  0.39040552    -0.02300
C648        C  0.75985058  0.66419808  0.40953356     0.07400
C649        C  0.75257757  0.70771906  0.43543867    -0.02400
C650        C  0.70603346  0.72430621  0.44638821    -0.02400
C651        C  0.66517993  0.70222944  0.42600679     0.07600
C652        C  0.67327021  0.66201888  0.39532257    -0.02600
Br653      Br  0.62439438  0.63402463  0.35584046    -0.01100
Br654      Br  0.72599084  0.58186377  0.35638035    -0.01200
Br655      Br  0.69976413  0.78031047  0.48712786    -0.01100
Br656      Br  0.80425132  0.74875421  0.45433058    -0.01100
C657        C  0.86690014  0.76159735  0.32200407    -0.02300
C658        C  0.89971808  0.72693883  0.34012576     0.07400
C659        C  0.94797957  0.73501391  0.32626281    -0.02400
C660        C  0.96320317  0.77929634  0.30726026    -0.02400
C661        C  0.92979921  0.81120064  0.28751852     0.07600
C662        C  0.88176347  0.79703042  0.29000261    -0.02600
Br663      Br  0.83574573  0.82071931  0.24462215    -0.01100
Br664      Br  0.80178415  0.76956612  0.34147481    -0.01200
Br665      Br  0.03009216  0.79404671  0.30889985    -0.01100
Br666      Br  0.99122174  0.68373386  0.31654287    -0.01100
C667        C  0.93226366  0.68682578  0.47696968    -0.02300
C668        C  0.94592133  0.66800488  0.43195458     0.07400
C669        C  0.99515433  0.65770297  0.42810630    -0.02400
C670        C  0.02980883  0.68110715  0.45807281    -0.02400
C671        C  0.01538375  0.70854159  0.49869598     0.07600
C672        C  0.96576468  0.70590811  0.50975083    -0.02600
Br673      Br  0.94145931  0.72371638  0.57272730    -0.01100
Br674      Br  0.87053965  0.67491026  0.50234366    -0.01200
Br675      Br  0.09583011  0.66870108  0.44592726    -0.01100
Br676      Br  0.01306318  0.60083727  0.39355206    -0.01100
C677        C  0.94383852  0.50838293  0.25217188    -0.02300
C678        C  0.96015320  0.46808375  0.27687083     0.07400
C679        C  0.93925517  0.46045039  0.32235563    -0.02400
C680        C  0.91130880  0.49643002  0.34533173    -0.02400
C681        C  0.90367195  0.54135979  0.32354380     0.07600
C682        C  0.92205595  0.54668058  0.27673096    -0.02600
Br683      Br  0.92373907  0.60742427  0.24620882    -0.01100
Br684      Br  0.93962838  0.50643916  0.18328495    -0.01200
Br685      Br  0.88152192  0.48188274  0.40524570    -0.01100
Br686      Br  0.94631825  0.39915563  0.35201415    -0.01100
C687        C  0.83970575  0.55754867  0.50386258    -0.02300
C688        C  0.81375680  0.58062909  0.46585700     0.07400
C689        C  0.76429703  0.57499477  0.46963773    -0.02400
C690        C  0.74941120  0.52981348  0.48280657    -0.02400
C691        C  0.76736948  0.51243772  0.52653262     0.07600
C692        C  0.81422056  0.52884592  0.53772005    -0.02600
Br693      Br  0.84329230  0.51242531  0.59742354    -0.01100
Br694      Br  0.90753583  0.56283370  0.51264215    -0.01200
Br695      Br  0.74142495  0.48479810  0.43108893    -0.01100
Br696      Br  0.73472147  0.62137669  0.51091858    -0.01100
C697        C  0.06321629  0.28214061  0.23471092    -0.02300
C698        C  0.05456124  0.32134164  0.20565848     0.07400
C699        C  0.06344500  0.31530779  0.15627181    -0.02400
C700        C  0.08470256  0.27260778  0.13786591    -0.02400
C701        C  0.09636594  0.23405492  0.16849114     0.07600
C702        C  0.09028542  0.24311993  0.21800759    -0.02600
Br703      Br  0.13574002  0.21997381  0.26292517    -0.01100
Br704      Br  0.02901717  0.27656161  0.29363037    -0.01200
Br705      Br  0.10739635  0.27232017  0.07313200    -0.01100
Br706      Br  0.04209116  0.36400035  0.11340903    -0.01100
C707        C  0.12648230  0.09794303  0.28431190    -0.02300
C708        C  0.15172271  0.09010375  0.24070218     0.07400
C709        C  0.19518148  0.06462611  0.24504646    -0.02400
C710        C  0.21564555  0.05325749  0.29014843    -0.02400
C711        C  0.19161882  0.06369606  0.33290638     0.07600
C712        C  0.14484377  0.08137955  0.32872607    -0.02600
Br713      Br  0.10270804  0.07310507  0.38196800    -0.01100
Br714      Br  0.06695845  0.13151507  0.28641507    -0.01200
Br715      Br  0.27663646  0.02213851  0.29348940    -0.01100
Br716      Br  0.22653536  0.04223446  0.18940790    -0.01100
C717        C  0.24513020  0.20791985  0.11294056    -0.02300
C718        C  0.23352770  0.15854162  0.10714344     0.07400
C719        C  0.26901013  0.13046147  0.08274079    -0.02400
C720        C  0.30944261  0.15162056  0.06073196    -0.02400
C721        C  0.31994504  0.20007583  0.06734992     0.07600
C722        C  0.28663459  0.22784905  0.09244166    -0.02600
Br723      Br  0.29584439  0.29539536  0.09488177    -0.01100
Br724      Br  0.20783866  0.25136594  0.15075957    -0.01200
Br725      Br  0.35156965  0.11416922  0.02091794    -0.01100
Br726      Br  0.26945056  0.06222822  0.08385255    -0.01100
C727        C  0.05529573  0.99946489  0.14469988    -0.02300
C728        C  0.07493520  0.03772741  0.17409508     0.07400
C729        C  0.05636299  0.03790736  0.22001848    -0.02400
C730        C  0.05178661  0.99396132  0.24215238    -0.02400
C731        C  0.02781933  0.95764408  0.21720742     0.07600
C732        C  0.03320088  0.95911306  0.16687664    -0.02600
Br733      Br  0.01179992  0.90550320  0.12921106    -0.01100
Br734      Br  0.04160579  0.00490905  0.07762311    -0.01200
Br735      Br  0.10006466  0.97428044  0.28571835    -0.01100
Br736      Br  0.99622410  0.07073890  0.21735488    -0.01100
C737        C  0.04846574  0.17479151  0.03418906    -0.02300
C738        C  0.04334315  0.17747318  0.08426724     0.07400
C739        C  0.00429196  0.20521188  0.10087744    -0.02400
C740        C  0.97589280  0.23324333  0.06874427    -0.02400
C741        C  0.98655719  0.23469171  0.01873910     0.07600
C742        C  0.02744713  0.20851483  0.00476958    -0.02600
Br743      Br  0.06283503  0.22160522  0.94805219    -0.01100
Br744      Br  0.07307563  0.12056121  0.00002595    -0.01200
Br745      Br  0.92955199  0.27508620  0.09693830    -0.01100
Br746      Br  0.98555119  0.19940521  0.16660841    -0.01100
C747        C  0.16090244  0.01554960  0.99522003    -0.02300
C748        C  0.19829580  0.02828513  0.96503439     0.07400
C749        C  0.21200898  0.07694546  0.96837923    -0.02400
C750        C  0.19256598  0.10703308  0.00528831    -0.02400
C751        C  0.16935456  0.08590708  0.04513974     0.07600
C752        C  0.15689454  0.03770052  0.03960509    -0.02600
Br753      Br  0.15886785  0.99537947  0.09246819    -0.01100
Br754      Br  0.10544227  0.98443717  0.96946985    -0.01200
Br755      Br  0.19612899  0.17504934  0.99942759    -0.01100
Br756      Br  0.25633525  0.10211373  0.92341498    -0.01100
loop_ 
_geom_bond_atom_site_label_1 
_geom_bond_atom_site_label_2 
_geom_bond_distance 
_geom_bond_site_symmetry_2 
_ccdc_geom_bond_type 
C1            H2   1.099       .  S
C1            C7   1.587       .  S
C1            C6   1.593       .  S
C1            C5   1.583       .  S
C3            H4   1.080       .  S
C3            C9   1.559       .  S
C3            C8   1.561       .  S
C3           C10   1.572       .  S
C5            C8   1.401       .  D
C5          C708   1.559       .  S
C6            C9   1.400       .  D
C6          C701   1.555       .  S
C7           C10   1.391       .  D
C7          C718   1.570       .  S
C8          C728   1.557       .  S
C9          C738   1.548       .  S
C10         C751   1.528       .  S
C11          H12   1.051       .  S
C11          C17   1.554       .  S
C11          C16   1.566       .  S
C11          C15   1.556       .  S
C13          H14   1.096       .  S
C13          C19   1.574       .  S
C13          C18   1.585       .  S
C13          C20   1.582       .  S
C15          C18   1.398       .  D
C15         C641   1.572       .  S
C16          C19   1.404       .  D
C16         C658   1.568       .  S
C17          C20   1.402       .  D
C17         C648   1.532       .  S
C18         C681   1.543       .  S
C19         C668   1.550       .  S
C20         C688   1.557       .  S
C21          C22   1.552       .  S
C21          C27   1.549       .  S
C21          C25   1.557       .  S
C21         C741   1.587   1_556  S
C22          C23   1.370       .  D
C22          H29   1.086   1_655  S
C23          C24   1.521       .  S
C23         C608   1.506       .  S
C24          H30   1.091       .  S
C24          C28   1.544       .  S
C24          C26   1.552       .  S
C25          C26   1.379       .  D
C25          H31   1.078   1_556  S
C26         C618   1.504       .  S
C27          C28   1.371       .  D
C27          H32   1.077       .  S
C28         C628   1.526       .  S
C33          C34   1.526       .  S
C33          C39   1.526       .  S
C33          C37   1.578       .  S
C33         C691   1.564       .  S
C34          C35   1.348       .  D
C34          H41   1.086       .  S
C35          C36   1.544       .  S
C35         C578   1.463       .  S
C36          H42   1.097       .  S
C36          C40   1.549       .  S
C36          C38   1.539       .  S
C37          C38   1.401       .  D
C37          H43   1.085       .  S
C38         C588   1.541       .  S
C39          C40   1.363       .  D
C39          H44   1.086       .  S
C40         C598   1.509       .  S
C45          C46   1.559       .  S
C45          C51   1.533       .  S
C45          C49   1.556       .  S
C45         C541   1.570       .  S
C46          C47   1.369       .  D
C46          H53   1.083   1_545  S
C47          C48   1.528       .  S
C47         C551   1.506       .  S
C48          H54   1.098       .  S
C48          C52   1.542       .  S
C48          C50   1.558       .  S
C49          C50   1.380       .  D
C49          H55   1.085       .  S
C50         C568   1.516       .  S
C51          C52   1.361       .  D
C51          H56   1.085       .  S
C52         C558   1.500       .  S
Zn57         O61   1.838       .  S
Zn57         O62   1.931       .  S
Zn57         O66   1.958       .  S
Zn57         O73   1.967       .  S
Zn58         O61   1.897       .  S
Zn58         O63   2.023       .  S
Zn58         O65   2.050       .  S
Zn58         O69   1.965       .  S
Zn59         O61   1.911       .  S
Zn59         O64   2.036       .  S
Zn59         O67   1.999   1_655  S
Zn59         O70   2.031   1_655  S
Zn60         O61   1.923       .  S
Zn60         O68   1.938   1_545  S
Zn60         O71   1.983       .  S
Zn60         O72   2.017       .  S
O62          C74   1.263       .  A
O63          C75   1.274   1_655  A
O64          C76   1.278       .  A
O65          C74   1.275       .  A
O66          C76   1.269       .  A
O67          C75   1.273       .  A
O68          C77   1.266       .  A
O69          C78   1.273       .  A
O70          C77   1.275   1_445  A
O71          C78   1.270       .  A
O72          C79   1.268       .  A
O73          C79   1.261       .  A
C74         C601   1.461       .  S
C75         C521   1.496       .  S
C76         C631   1.473       .  S
C77         C531   1.460   1_655  S
C78         C511   1.458       .  S
C79         C561   1.469       .  S
C80          H81   1.107       .  S
C80          C86   1.576       .  S
C80          C85   1.586       .  S
C80          C84   1.587       .  S
C82          H83   1.095       .  S
C82          C88   1.557       .  S
C82          C87   1.571       .  S
C82          C89   1.570       .  S
C84          C87   1.384       .  D
C84         C571   1.559       .  S
C85          C88   1.394       .  D
C85         C621   1.533       .  S
C86          C89   1.403       .  D
C86         C591   1.551       .  S
C87         C491   1.538       .  S
C88         C478   1.560       .  S
C89         C498   1.546       .  S
C90          C91   1.530       .  S
C90          C96   1.546       .  S
C90          C94   1.568       .  S
C90         C748   1.569   1_565  S
C91          C92   1.361       .  D
C91          H98   1.085   1_565  S
C92          C93   1.537       .  S
C92         C448   1.474       .  S
C93          H99   1.108       .  S
C93          C97   1.533       .  S
C93          C95   1.541       .  S
C94          C95   1.397       .  D
C94         H100   1.084   1_565  S
C95         C458   1.530       .  S
C96          C97   1.351       .  D
C96         H101   1.079       .  S
C97         C468   1.494       .  S
C102        C103   1.522       .  S
C102        C108   1.530       .  S
C102        C106   1.594       .  S
C102        C501   1.583       .  S
C103        C104   1.343       .  D
C103        H110   1.089       .  S
C104        C105   1.551       .  S
C104        C418   1.482       .  S
C105        H111   1.098       .  S
C105        C109   1.527       .  S
C105        C107   1.549       .  S
C106        C107   1.418       .  D
C106        H112   1.074       .  S
C107        C428   1.565       .  S
C108        C109   1.353       .  D
C108        H113   1.088       .  S
C109        C438   1.483       .  S
C114        C115   1.527       .  S
C114        C120   1.543       .  S
C114        C118   1.586       .  S
C114        C671   1.583       .  S
C115        C116   1.347       .  D
C115        H122   1.088   1_455  S
C116        C117   1.546       .  S
C116        C528   1.476       .  S
C117        H123   1.084       .  S
C117        C121   1.531       .  S
C117        C119   1.534       .  S
C118        C119   1.409       .  D
C118        H124   1.076       .  S
C119        C408   1.553       .  S
C120        C121   1.363       .  D
C120        H125   1.085       .  S
C121        C398   1.519       .  S
Zn126       O130   1.939       .  S
Zn126       O131   2.022       .  S
Zn126       O135   2.037       .  S
Zn126       O142   1.961       .  S
Zn127       O130   1.935       .  S
Zn127       O132   2.002       .  S
Zn127       O134   2.009       .  S
Zn127       O138   1.981       .  S
Zn128       O130   1.899       .  S
Zn128       O133   1.960       .  S
Zn128       O136   1.961       .  S
Zn128       O139   1.977   1_556  S
Zn129       O130   1.966       .  S
Zn129       O137   2.032   1_556  S
Zn129       O140   2.023       .  S
Zn129       O141   2.006       .  S
O131        C143   1.271       .  A
O132        C144   1.270       .  A
O133        C145   1.267       .  A
O134        C143   1.272       .  A
O135        C145   1.274       .  A
O136        C144   1.268       .  A
O137        C146   1.274       .  A
O138        C147   1.269       .  A
O139        C146   1.268       .  A
O140        C147   1.272       .  A
O141        C148   1.271       .  A
O142        C148   1.272       .  A
C143        C401   1.491       .  S
C144        C378   1.455   1_455  S
C145        C611   1.464       .  S
C146        C388   1.470       .  S
C147        C471   1.495       .  S
C148        C441   1.480       .  S
C149        C150   1.531       .  S
C149        C155   1.529       .  S
C149        C153   1.578       .  S
C149        C488   1.583   1_554  S
C150        C151   1.357       .  D
C150        H157   1.087       .  S
C151        C152   1.553       .  S
C151        C358   1.515       .  S
C152        H158   1.105       .  S
C152        C156   1.544       .  S
C152        C154   1.551       .  S
C153        C154   1.398       .  D
C153        H159   1.081   1_554  S
C154        C721   1.525       .  S
C155        C156   1.354       .  D
C155        H160   1.079       .  S
C156        C371   1.509       .  S
C161        C162   1.563       .  S
C161        C167   1.536       .  S
C161        C165   1.571       .  S
C161        C338   1.601   1_545  S
C162        C163   1.377       .  D
C162        H169   1.083       .  S
C163        C164   1.531       .  S
C163        C518   1.519       .  S
C164        H170   1.095       .  S
C164        C168   1.537       .  S
C164        C166   1.548       .  S
C165        C166   1.392       .  D
C165        H171   1.085   1_545  S
C166        C711   1.531       .  S
C167        C168   1.364       .  D
C167        H172   1.085       .  S
C168        C351   1.498       .  S
C173        C174   1.557       .  S
C173        C179   1.534       .  S
C173        C177   1.558       .  S
C173        C678   1.575   1_455  S
C174        C175   1.371       .  D
C174        H181   1.074       .  S
C175        C176   1.542       .  S
C175        C391   1.521       .  S
C176        H182   1.101       .  S
C176        C180   1.543       .  S
C176        C178   1.561       .  S
C177        C178   1.384       .  D
C177        H183   1.085   1_455  S
C178        C698   1.527       .  S
C179        C180   1.352       .  D
C179        H184   1.085       .  S
C180        C331   1.489       .  S
Zn185       O189   1.916       .  S
Zn185       O190   2.110       .  S
Zn185       O194   2.009       .  S
Zn185       O201   2.010       .  S
Zn186       O189   1.821       .  S
Zn186       O191   1.966       .  S
Zn186       O193   1.875       .  S
Zn186       O197   1.969       .  S
Zn187       O189   1.903       .  S
Zn187       O192   1.976       .  S
Zn187       O195   2.056       .  S
Zn187       O198   2.017       .  S
Zn188       O189   1.870       .  S
Zn188       O196   2.007       .  S
Zn188       O199   1.977       .  S
Zn188       O200   2.000       .  S
O190        C202   1.280       .  A
O191        C203   1.257       .  A
O192        C204   1.277       .  A
O193        C202   1.255       .  A
O194        C204   1.281       .  A
O195        C203   1.272       .  A
O196        C205   1.272       .  A
O197        C206   1.272       .  A
O198        C205   1.275       .  A
O199        C206   1.269       .  A
O200        C207   1.271       .  A
O201        C207   1.273       .  A
C202        C318   1.490       .  S
C203        C421   1.482       .  S
C204        C328   1.456       .  S
C205        C348   1.473       .  S
C206        C581   1.473       .  S
C207        C368   1.480       .  S
C208        H209   1.094       .  S
C208        C214   1.564       .  S
C208        C213   1.568       .  S
C208        C212   1.578       .  S
C210        H211   1.105       .  S
C210        C216   1.577       .  S
C210        C215   1.578       .  S
C210        C217   1.577       .  S
C212        C215   1.391       .  D
C212        C461   1.558       .  S
C213        C216   1.391       .  D
C213        C431   1.558       .  S
C214        C217   1.386       .  D
C214        C411   1.533       .  S
C215        C538   1.537       .  S
C216        C308   1.534       .  S
C217        C341   1.551       .  S
C218        C219   1.540       .  S
C218        C224   1.536       .  S
C218        C222   1.568       .  S
C218        C731   1.565   1_655  S
C219        C220   1.348       .  D
C219        H226   1.085       .  S
C220        C221   1.521       .  S
C220        C508   1.461       .  S
C221        H227   1.106       .  S
C221        C225   1.537       .  S
C221        C223   1.547       .  S
C222        C223   1.398       .  D
C222        H228   1.082   1_655  S
C223        C661   1.535       .  S
C224        C225   1.363       .  D
C224        H229   1.087       .  S
C225        C301   1.492       .  S
C230        C231   1.549       .  S
C230        C236   1.532       .  S
C230        C234   1.558       .  S
C230        C311   1.562       .  S
C231        C232   1.357       .  D
C231        H238   1.083       .  S
C232        C233   1.542       .  S
C232        C321   1.490       .  S
C233        H239   1.107       .  S
C233        C237   1.539       .  S
C233        C235   1.546       .  S
C234        C235   1.391       .  D
C234        H240   1.084       .  S
C235        C651   1.536       .  S
C236        C237   1.357       .  D
C236        H241   1.085       .  S
C237        C288   1.470       .  S
C242        C243   1.531       .  S
C242        C248   1.534       .  S
C242        C246   1.567       .  S
C242        C481   1.569       .  S
C243        C244   1.363       .  D
C243        H250   1.086   1_554  S
C244        C245   1.534       .  S
C244        C381   1.492       .  S
C245        H251   1.102       .  S
C245        C249   1.536       .  S
C245        C247   1.558       .  S
C246        C247   1.398       .  D
C246        H252   1.082       .  S
C247        C638   1.545       .  S
C248        C249   1.351       .  D
C248        H253   1.085       .  S
C249        C278   1.485       .  S
Zn254       O258   1.946       .  S
Zn254       O259   2.003       .  S
Zn254       O263   2.046       .  S
Zn254       O270   2.017   1_554  S
Zn255       O258   1.939       .  S
Zn255       O260   2.006       .  S
Zn255       O262   2.008       .  S
Zn255       O266   1.977       .  S
Zn256       O258   1.883       .  S
Zn256       O261   1.941       .  S
Zn256       O264   1.949       .  S
Zn256       O267   1.954       .  S
Zn257       O258   1.936       .  S
Zn257       O265   2.017       .  S
Zn257       O268   1.999   1_565  S
Zn257       O269   1.970       .  S
O259        C271   1.273       .  A
O260        C272   1.271       .  A
O261        C273   1.263       .  A
O262        C271   1.274       .  A
O263        C273   1.276       .  A
O264        C272   1.264       .  A
O265        C274   1.271       .  A
O266        C275   1.264   1_565  A
O267        C274   1.267       .  A
O268        C275   1.271       .  A
O269        C276   1.266   1_554  A
O270        C276   1.274       .  A
C271        C451   1.479       .  S
C272        C291   1.480       .  S
C273        C281   1.460       .  S
C274        C298   1.456       .  S
C275        C361   1.481       .  S
C276        C548   1.483       .  S
C277        C278   1.416       .  A
C277        C282   1.404       .  A
C277       Br284   1.936       .  S
C278        C279   1.412       .  A
C279        C280   1.405       .  A
C279       Br286   1.921       .  S
C280        C281   1.405       .  A
C280       Br285   1.934       .  S
C281        C282   1.405       .  A
C282       Br283   1.930       .  S
C287        C288   1.399       .  A
C287        C292   1.398       .  A
C287       Br294   1.924       .  S
C288        C289   1.407       .  A
C289        C290   1.405       .  A
C289       Br296   1.934       .  S
C290        C291   1.417       .  A
C290       Br295   1.933       .  S
C291        C292   1.422       .  A
C292       Br293   1.943       .  S
C297        C298   1.400       .  A
C297        C302   1.399       .  A
C297       Br304   1.931       .  S
C298        C299   1.401       .  A
C299        C300   1.406       .  A
C299       Br306   1.933   1_565  S
C300        C301   1.419       .  A
C300       Br305   1.921       .  S
C301        C302   1.414       .  A
C302       Br303   1.929       .  S
C307        C308   1.428       .  A
C307        C312   1.431       .  A
C307       Br314   1.924       .  S
C308        C309   1.418       .  A
C309        C310   1.393       .  A
C309       Br316   1.908       .  S
C310        C311   1.400       .  A
C310       Br315   1.924       .  S
C311        C312   1.422       .  A
C312       Br313   1.930       .  S
C317        C318   1.410       .  A
C317        C322   1.418       .  A
C317       Br324   1.926       .  S
C318        C319   1.418       .  A
C319        C320   1.394       .  A
C319       Br326   1.942       .  S
C320        C321   1.409       .  A
C320       Br325   1.936       .  S
C321        C322   1.416       .  A
C322       Br323   1.916       .  S
C327        C328   1.409       .  A
C327        C332   1.395       .  A
C327       Br334   1.939       .  S
C328        C329   1.399       .  A
C329        C330   1.404       .  A
C329       Br336   1.932       .  S
C330        C331   1.420       .  A
C330       Br335   1.917       .  S
C331        C332   1.402       .  A
C332       Br333   1.902       .  S
C337        C338   1.434       .  A
C337        C342   1.445       .  A
C337       Br344   1.925       .  S
C338        C339   1.426       .  A
C339        C340   1.412       .  A
C339       Br346   1.922   1_565  S
C340        C341   1.414       .  A
C340       Br345   1.915       .  S
C341        C342   1.425       .  A
C342       Br343   1.928       .  S
C347        C348   1.406       .  A
C347        C352   1.408       .  A
C347       Br354   1.936       .  S
C348        C349   1.407       .  A
C349        C350   1.407       .  A
C349       Br356   1.934       .  S
C350        C351   1.415       .  A
C350       Br355   1.926       .  S
C351        C352   1.422       .  A
C352       Br353   1.930       .  S
C357        C358   1.426       .  A
C357        C362   1.402       .  A
C357       Br364   1.923       .  S
C358        C359   1.418       .  A
C359        C360   1.411       .  A
C359       Br366   1.923       .  S
C360        C361   1.418       .  A
C360       Br365   1.942       .  S
C361        C362   1.403       .  A
C362       Br363   1.942       .  S
C367        C368   1.411       .  A
C367        C372   1.400       .  A
C367       Br374   1.950       .  S
C368        C369   1.411       .  A
C369        C370   1.413       .  A
C369       Br376   1.939       .  S
C370        C371   1.430       .  A
C370       Br375   1.941       .  S
C371        C372   1.420       .  A
C372       Br373   1.920       .  S
C377        C378   1.399   1_554  A
C377        C382   1.403       .  A
C377       Br384   1.933       .  S
C378        C379   1.400       .  A
C379        C380   1.402       .  A
C379       Br386   1.934       .  S
C380        C381   1.420   1_556  A
C380       Br385   1.926       .  S
C381        C382   1.418       .  A
C382       Br383   1.919       .  S
C387        C388   1.402       .  A
C387        C392   1.410       .  A
C387       Br394   1.933       .  S
C388        C389   1.398       .  A
C389        C390   1.407       .  A
C389       Br396   1.935       .  S
C390        C391   1.430       .  A
C390       Br395   1.924       .  S
C391        C392   1.425       .  A
C392       Br393   1.924       .  S
C397        C398   1.427       .  A
C397        C402   1.406       .  A
C397       Br404   1.927       .  S
C398        C399   1.426       .  A
C399        C400   1.414       .  A
C399       Br406   1.935       .  S
C400        C401   1.412       .  A
C400       Br405   1.933       .  S
C401        C402   1.408       .  A
C402       Br403   1.941       .  S
C407        C408   1.436       .  A
C407        C412   1.399       .  A
C407       Br414   1.931       .  S
C408        C409   1.424       .  A
C409        C410   1.431       .  A
C409       Br416   1.928       .  S
C410        C411   1.428       .  A
C410       Br415   1.913       .  S
C411        C412   1.408       .  A
C412       Br413   1.928       .  S
C417        C418   1.406       .  A
C417        C422   1.401       .  A
C417       Br424   1.936       .  S
C418        C419   1.411       .  A
C419        C420   1.406       .  A
C419       Br426   1.926       .  S
C420        C421   1.411       .  A
C420       Br425   1.931       .  S
C421        C422   1.424       .  A
C422       Br423   1.937       .  S
C427        C428   1.435       .  A
C427        C432   1.421       .  A
C427       Br434   1.931       .  S
C428        C429   1.426       .  A
C429        C430   1.435       .  A
C429       Br436   1.929       .  S
C430        C431   1.430       .  A
C430       Br435   1.918       .  S
C431        C432   1.416       .  A
C432       Br433   1.933       .  S
C437        C438   1.413       .  A
C437        C442   1.409       .  A
C437       Br444   1.933       .  S
C438        C439   1.407       .  A
C439        C440   1.391       .  A
C439       Br446   1.917       .  S
C440        C441   1.405       .  A
C440       Br445   1.937       .  S
C441        C442   1.416       .  A
C442       Br443   1.929       .  S
C447        C448   1.404       .  A
C447        C452   1.404       .  A
C447       Br454   1.930       .  S
C448        C449   1.412   1_556  A
C449        C450   1.405       .  A
C449       Br456   1.936       .  S
C450        C451   1.411       .  A
C450       Br455   1.931       .  S
C451        C452   1.419   1_554  A
C452       Br453   1.936       .  S
C457        C458   1.418       .  A
C457        C462   1.414       .  A
C457       Br464   1.925       .  S
C458        C459   1.413       .  A
C459        C460   1.427       .  A
C459       Br466   1.936   1_565  S
C460        C461   1.442       .  A
C460       Br465   1.922   1_565  S
C461        C462   1.425       .  A
C462       Br463   1.939       .  S
C467        C468   1.410       .  A
C467        C472   1.412       .  A
C467       Br474   1.924       .  S
C468        C469   1.414       .  A
C469        C470   1.399       .  A
C469       Br476   1.939       .  S
C470        C471   1.417       .  A
C470       Br475   1.940       .  S
C471        C472   1.422       .  A
C472       Br473   1.935   1_556  S
C477        C478   1.443       .  A
C477        C482   1.438   1_556  A
C477       Br484   1.935   1_556  S
C478        C479   1.424       .  A
C479        C480   1.393       .  A
C479       Br486   1.923       .  S
C480        C481   1.419   1_556  A
C480       Br485   1.943       .  S
C481        C482   1.421       .  A
C482       Br483   1.926       .  S
C487        C488   1.445   1_554  A
C487        C492   1.402   1_554  A
C487       Br494   1.963       .  S
C488        C489   1.430       .  A
C489        C490   1.437       .  A
C489       Br496   1.921       .  S
C490        C491   1.424       .  A
C490       Br495   1.928       .  S
C491        C492   1.403       .  A
C492       Br493   1.909   1_556  S
C497        C498   1.426       .  A
C497        C502   1.439       .  A
C497       Br504   1.928       .  S
C498        C499   1.418       .  A
C499        C500   1.405       .  A
C499       Br506   1.930       .  S
C500        C501   1.440       .  A
C500       Br505   1.958       .  S
C501        C502   1.425       .  A
C502       Br503   1.919       .  S
C507        C508   1.403       .  A
C507        C512   1.403       .  A
C507       Br514   1.932       .  S
C508        C509   1.409   1_565  A
C509        C510   1.393       .  A
C509       Br516   1.933       .  S
C510        C511   1.406       .  A
C510       Br515   1.937       .  S
C511        C512   1.416   1_545  A
C512       Br513   1.934       .  S
C517        C518   1.416       .  A
C517        C522   1.413       .  A
C517       Br524   1.924       .  S
C518        C519   1.406       .  A
C519        C520   1.406       .  A
C519       Br526   1.916       .  S
C520        C521   1.417       .  A
C520       Br525   1.934       .  S
C521        C522   1.419       .  A
C522       Br523   1.935       .  S
C527        C528   1.414       .  A
C527        C532   1.404       .  A
C527       Br534   1.936       .  S
C528        C529   1.407   1_455  A
C529        C530   1.400       .  A
C529       Br536   1.926       .  S
C530        C531   1.407   1_655  A
C530       Br535   1.933       .  S
C531        C532   1.410       .  A
C532       Br533   1.934       .  S
C537        C538   1.429       .  A
C537        C542   1.436   1_565  A
C537       Br544   1.931   1_565  S
C538        C539   1.418       .  A
C539        C540   1.395       .  A
C539       Br546   1.917       .  S
C540        C541   1.413   1_565  A
C540       Br545   1.926       .  S
C541        C542   1.427       .  A
C542       Br543   1.929       .  S
C547        C548   1.421   1_545  A
C547        C552   1.406       .  A
C547       Br554   1.939       .  S
C548        C549   1.410       .  A
C549        C550   1.405       .  A
C549       Br556   1.934       .  S
C550        C551   1.411   1_565  A
C550       Br555   1.916       .  S
C551        C552   1.411       .  A
C552       Br553   1.923       .  S
C557        C558   1.412       .  A
C557        C562   1.395       .  A
C557       Br564   1.911       .  S
C558        C559   1.427       .  A
C559        C560   1.411       .  A
C559       Br566   1.931   1_545  S
C560        C561   1.406       .  A
C560       Br565   1.935   1_545  S
C561        C562   1.408       .  A
C562       Br563   1.943       .  S
C567        C568   1.407       .  A
C567        C572   1.429       .  A
C567       Br574   1.930       .  S
C568        C569   1.394       .  A
C569        C570   1.417       .  A
C569       Br576   1.935       .  S
C570        C571   1.429       .  A
C570       Br575   1.897       .  S
C571        C572   1.436       .  A
C572       Br573   1.925       .  S
C577        C578   1.407       .  A
C577        C582   1.405       .  A
C577       Br584   1.935       .  S
C578        C579   1.404       .  A
C579        C580   1.391       .  A
C579       Br586   1.938       .  S
C580        C581   1.410       .  A
C580       Br585   1.931       .  S
C581        C582   1.420       .  A
C582       Br583   1.937       .  S
C587        C588   1.408       .  A
C587        C592   1.426       .  A
C587       Br594   1.933       .  S
C588        C589   1.431       .  A
C589        C590   1.422       .  A
C589       Br596   1.926       .  S
C590        C591   1.420       .  A
C590       Br595   1.939       .  S
C591        C592   1.435       .  A
C592       Br593   1.910       .  S
C597        C598   1.426       .  A
C597        C602   1.400       .  A
C597       Br604   1.929       .  S
C598        C599   1.426       .  A
C599        C600   1.413       .  A
C599       Br606   1.928       .  S
C600        C601   1.405       .  A
C600       Br605   1.935       .  S
C601        C602   1.395       .  A
C602       Br603   1.938       .  S
C607        C608   1.417       .  A
C607        C612   1.406       .  A
C607       Br614   1.922       .  S
C608        C609   1.410   1_655  A
C609        C610   1.404       .  A
C609       Br616   1.913       .  S
C610        C611   1.401       .  A
C610       Br615   1.926       .  S
C611        C612   1.405   1_455  A
C612       Br613   1.931       .  S
C617        C618   1.406       .  A
C617        C622   1.419       .  A
C617       Br624   1.930       .  S
C618        C619   1.405       .  A
C619        C620   1.416       .  A
C619       Br626   1.936       .  S
C620        C621   1.425       .  A
C620       Br625   1.915       .  S
C621        C622   1.429       .  A
C622       Br623   1.932       .  S
C627        C628   1.440       .  A
C627        C632   1.414       .  A
C627       Br634   1.928   1_655  S
C628        C629   1.427       .  A
C629        C630   1.398       .  A
C629       Br636   1.929       .  S
C630        C631   1.403       .  A
C630       Br635   1.942       .  S
C631        C632   1.400       .  A
C632       Br633   1.940       .  S
C637        C638   1.426       .  A
C637        C642   1.425       .  A
C637       Br644   1.926       .  S
C638        C639   1.429       .  A
C639        C640   1.418       .  A
C639       Br646   1.934       .  S
C640        C641   1.428       .  A
C640       Br645   1.942       .  S
C641        C642   1.422       .  A
C642       Br643   1.929       .  S
C647        C648   1.410       .  A
C647        C652   1.419       .  A
C647       Br654   1.933       .  S
C648        C649   1.430       .  A
C649        C650   1.424       .  A
C649       Br656   1.924       .  S
C650        C651   1.420       .  A
C650       Br655   1.942       .  S
C651        C652   1.431       .  A
C652       Br653   1.923       .  S
C657        C658   1.439       .  A
C657        C662   1.414       .  A
C657       Br664   1.927       .  S
C658        C659   1.433       .  A
C659        C660   1.428       .  A
C659       Br666   1.905       .  S
C660        C661   1.416       .  A
C660       Br665   1.927   1_655  S
C661        C662   1.411       .  A
C662       Br663   1.935       .  S
C667        C668   1.417       .  A
C667        C672   1.414       .  A
C667       Br674   1.911       .  S
C668        C669   1.420       .  A
C669        C670   1.438   1_655  A
C669       Br676   1.928   1_655  S
C670        C671   1.428       .  A
C670       Br675   1.922       .  S
C671        C672   1.434   1_455  A
C672       Br673   1.955       .  S
C677        C678   1.412       .  A
C677        C682   1.413       .  A
C677       Br684   1.934       .  S
C678        C679   1.425       .  A
C679        C680   1.430       .  A
C679       Br686   1.934       .  S
C680        C681   1.427       .  A
C680       Br685   1.929       .  S
C681        C682   1.422       .  A
C682       Br683   1.922       .  S
C687        C688   1.449       .  A
C687        C692   1.447       .  A
C687       Br694   1.929       .  S
C688        C689   1.405       .  A
C689        C690   1.393       .  A
C689       Br696   1.925       .  S
C690        C691   1.416       .  A
C690       Br695   1.924       .  S
C691        C692   1.429       .  A
C692       Br693   1.921       .  S
C697        C698   1.400       .  A
C697        C702   1.412       .  A
C697       Br704   1.923       .  S
C698        C699   1.416       .  A
C699        C700   1.433       .  A
C699       Br706   1.928       .  S
C700        C701   1.429       .  A
C700       Br705   1.926       .  S
C701        C702   1.419       .  A
C702       Br703   1.911       .  S
C707        C708   1.431       .  A
C707        C712   1.429       .  A
C707       Br714   1.924       .  S
C708        C709   1.423       .  A
C709        C710   1.427       .  A
C709       Br716   1.896       .  S
C710        C711   1.406       .  A
C710       Br715   1.929       .  S
C711        C712   1.412       .  A
C712       Br713   1.927       .  S
C717        C718   1.434       .  A
C717        C722   1.422       .  A
C717       Br724   1.922       .  S
C718        C719   1.443       .  A
C719        C720   1.430       .  A
C719       Br726   1.920       .  S
C720        C721   1.405       .  A
C720       Br725   1.935       .  S
C721        C722   1.406       .  A
C722       Br723   1.918       .  S
C727        C728   1.454   1_565  A
C727        C732   1.444       .  A
C727       Br734   1.925   1_565  S
C728        C729   1.391       .  A
C729        C730   1.397   1_545  A
C729       Br736   1.930   1_455  S
C730        C731   1.401       .  A
C730       Br735   1.909       .  S
C731        C732   1.420       .  A
C732       Br733   1.924       .  S
C737        C738   1.412       .  A
C737        C742   1.395       .  A
C737       Br744   1.922       .  S
C738        C739   1.424       .  A
C739        C740   1.443   1_455  A
C739       Br746   1.927   1_455  S
C740        C741   1.436       .  A
C740       Br745   1.923       .  S
C741        C742   1.420   1_655  A
C742       Br743   1.919   1_554  S
C747        C748   1.403       .  A
C747        C752   1.389   1_556  A
C747       Br754   1.922   1_545  S
C748        C749   1.424       .  A
C749        C750   1.438   1_556  A
C749       Br756   1.919       .  S
C750        C751   1.432       .  A
C750       Br755   1.925   1_554  S
C751        C752   1.407       .  A
C752       Br753   1.913   1_545  S
