geometry optimzed in LAMMPS
_audit_creation_date              2020-11-30 
_audit_creation_method            'lammps2cif' 
_symmetry_space_group_name_H-M    'P1' 
_symmetry_Int_Tables_number       1 
_symmetry_cell_setting            triclinic 
loop_ 
_symmetry_equiv_pos_as_xyz 
  x,y,z 
_cell_length_a                    38.8676273 
_cell_length_b                    38.61400441346327 
_cell_length_c                    38.73252746549081 
_cell_angle_alpha                 89.81200867390785 
_cell_angle_beta                  90.45025017869973 
_cell_angle_gamma                 89.99698496092385 
loop_ 
_atom_site_label 
_atom_site_type_symbol 
_atom_site_fract_x 
_atom_site_fract_y 
_atom_site_fract_z 
_atom_site_charge 
O1          O  0.06461601  0.16086248  0.09777867    -0.84700
O2          O  0.06379497  0.09705499  0.13079411    -0.81800
C3          C  0.07228423  0.07088315  0.14824671     0.98700
O4          O  0.10379974  0.06689619  0.15647127    -0.81800
O5          O  0.14277070  0.06636608  0.09540096    -0.84500
C6          C  0.15885349  0.07716597  0.06929454     1.03200
O7          O  0.16381427  0.10947596  0.06533132    -0.77200
O8          O  0.10028380  0.14140100  0.05892119    -0.77400
C9          C  0.07262123  0.15641867  0.06643167     1.03200
O10         O  0.10480706  0.18731906  0.15385310    -0.84700
O11         O  0.09877635  0.12672119  0.19041471    -0.81800
C12         C  0.12889638  0.12309226  0.20278214     0.98700
O13         O  0.15351788  0.11493470  0.18372936    -0.81800
O14         O  0.19426817  0.10965975  0.12762998    -0.84400
C15         C  0.20467034  0.14053020  0.12305976     1.03200
O16         O  0.18363842  0.16323580  0.11285663    -0.77300
O17         O  0.12252593  0.19816952  0.10156158    -0.77400
C18         C  0.11241743  0.20892978  0.13073506     1.03200
Cr19       Cr  0.08569113  0.14169297  0.14174639     1.93700
Cr20       Cr  0.14674649  0.09191017  0.13938876     1.93200
Cr21       Cr  0.14133984  0.15127980  0.08721512     1.39100
O22         O  0.12457817  0.12830201  0.12270280    -1.22500
O23         O  0.94648149  0.66596858  0.41225297    -0.84700
O24         O  0.95251363  0.60191199  0.38013519    -0.81800
C25         C  0.94469238  0.57357764  0.36619580     0.98700
O26         O  0.91323878  0.56465450  0.36324357    -0.81800
O27         O  0.87723490  0.56478739  0.42705578    -0.84500
C28         C  0.86114176  0.57614355  0.45292265     1.03200
O29         O  0.85448337  0.60819449  0.45488874    -0.77200
O30         O  0.91616870  0.64515694  0.45509845    -0.77400
C31         C  0.94148558  0.66252050  0.44450813     1.03200
O32         O  0.89793726  0.68441251  0.35848656    -0.84700
O33         O  0.90867749  0.62490636  0.32407180    -0.81800
C34         C  0.87919752  0.61543900  0.31372727     0.98700
O35         O  0.85728803  0.60452344  0.33478186    -0.81800
O36         O  0.82067751  0.60166739  0.39405021    -0.84400
C37         C  0.80891997  0.63231655  0.39649786     1.03200
O38         O  0.82851185  0.65672875  0.40537060    -0.77300
O39         O  0.88633747  0.69708056  0.41172629    -0.77400
C40         C  0.89182119  0.70667535  0.38101830     1.03200
Cr41       Cr  0.92396119  0.64282780  0.37066952     1.93700
Cr42       Cr  0.86896102  0.58662955  0.38112474     1.93200
Cr43       Cr  0.87259444  0.64971749  0.42922418     1.39100
O44         O  0.88880885  0.62598351  0.39387746    -1.22500
C45         C  0.96037716  0.30433070  0.87635855    -0.01900
C46         C  0.71216363  0.38362466  0.55420474    -0.01900
C47         C  0.63923144  0.05372142  0.80551974    -0.01900
O48         O  0.94037454  0.04905741  0.61955614    -0.84700
O49         O  0.97881786  0.10846360  0.62314092    -0.81800
C50         C  0.98823663  0.11545301  0.59260975     0.98700
O51         O  0.96628294  0.12290810  0.56976562    -0.81800
O52         O  0.90474447  0.12644795  0.53454830    -0.84500
C53         C  0.89582549  0.09615888  0.52537445     1.03200
O54         O  0.88768450  0.07367416  0.54745966    -0.77200
O55         O  0.88583825  0.03857002  0.60936501    -0.77400
C56         C  0.91671990  0.02807824  0.61227354     1.03200
O57         O  0.89071396  0.07665181  0.66841619    -0.84700
O58         O  0.92591155  0.13811320  0.66550021    -0.81800
C59         C  0.93718859  0.16630984  0.65383552     0.98700
O60         O  0.94196772  0.17046869  0.62168294    -0.81800
O61         O  0.87912536  0.16994223  0.58921158    -0.84400
C62         C  0.85075076  0.16002918  0.57704884     1.03200
O63         O  0.84486346  0.12800593  0.57289532    -0.77300
O64         O  0.84826011  0.09746760  0.63727974    -0.77400
C65         C  0.85966931  0.08675773  0.66587376     1.03200
Cr66       Cr  0.93201718  0.09399914  0.64128685     1.93700
Cr67       Cr  0.92191857  0.14457271  0.58069304     1.93200
Cr68       Cr  0.86960956  0.08610348  0.59293740     1.39100
O69         O  0.90793709  0.10828467  0.60483935    -1.22500
O70         O  0.60148028  0.44460729  0.85016656    -0.84700
O71         O  0.64280769  0.44991272  0.90934513    -0.81800
C72         C  0.65990851  0.44108139  0.93565519     0.98700
O73         O  0.66565472  0.40927205  0.94201979    -0.81800
O74         O  0.60259517  0.37555612  0.95071260    -0.84500
C75         C  0.57578094  0.35824513  0.94450076     1.03200
O76         O  0.56783113  0.35130897  0.91334226    -0.77200
O77         O  0.56341400  0.41382891  0.87778361    -0.77400
C78         C  0.57042307  0.43952151  0.85911971     1.03200
O79         O  0.65187920  0.39696108  0.82356970    -0.84700
O80         O  0.69431193  0.40596476  0.87865572    -0.87000
C81         C  0.70531510  0.37577766  0.88557559     0.98700
O82         O  0.68561357  0.35314761  0.89776005    -0.81800
O83         O  0.62629466  0.31752971  0.91073213    -0.84400
C84         C  0.61734685  0.30531617  0.88158969     1.03200
O85         O  0.60855159  0.32546661  0.85747146    -0.77300
O86         O  0.59740207  0.38460597  0.81814688    -0.77400
C87         C  0.62636042  0.39129935  0.80446332     1.03200
Cr88       Cr  0.64600089  0.42192372  0.86701444     1.93700
Cr89       Cr  0.64365808  0.36555568  0.92280092     1.93200
Cr90       Cr  0.58694600  0.37003532  0.86801211     1.39100
O91         O  0.62554951  0.38595618  0.88610420    -1.22500
C92         C  0.30644283  0.88648557  0.95989161    -0.01900
C93         C  0.37764257  0.55407538  0.71460215    -0.01900
C94         C  0.05820209  0.80623733  0.63572313    -0.01900
O95         O  0.12762968  0.57541019  0.96781758    -0.84700
O96         O  0.13047553  0.53940047  0.90737008    -0.81800
C97         C  0.09983220  0.52825558  0.90319431     0.98700
O98         O  0.07559922  0.54937119  0.89940140    -0.81800
O99         O  0.03689550  0.60817572  0.89493377    -0.84500
C100        C  0.02870658  0.61451998  0.92616069     1.03200
O101        O  0.05135321  0.62528667  0.94665748    -0.77200
O102        O  0.11234382  0.62878393  0.98041535    -0.77400
C103        C  0.11809496  0.59748090  0.98945497     1.03200
O104        O  0.17085088  0.63049433  0.94264911    -0.84700
O105        O  0.16629249  0.59991817  0.87886615    -0.81800
C106        C  0.15746446  0.58269589  0.85292313     0.98700
O107        O  0.12590710  0.57407512  0.84964040    -0.81800
O108        O  0.09079578  0.63609727  0.84995989    -0.84400
C109        C  0.07906363  0.66473506  0.85956337     1.03200
O110        O  0.07397585  0.67061372  0.89144850    -0.77300
O111        O  0.13726361  0.67132923  0.92270596    -0.77400
C112        C  0.16538647  0.66228210  0.93592144     1.03200
Cr113      Cr  0.14630895  0.58780508  0.92323189     1.93700
Cr114      Cr  0.08392604  0.59329709  0.87589414     1.93200
Cr115      Cr  0.09479535  0.64644578  0.93362040     1.39100
O116        O  0.10801460  0.60912608  0.91120968    -1.22500
C117        C  0.46187962  0.21013943  0.13598720    -0.01900
C118        C  0.21139566  0.13021344  0.45515726    -0.01900
C119        C  0.13016279  0.45987133  0.21492004    -0.01900
O120        O  0.46086149  0.39470296  0.44402224    -0.84700
O121        O  0.39910115  0.38935066  0.47804689    -0.81800
C122        C  0.39159666  0.42014435  0.48667148     0.98700
O123        O  0.38724135  0.44281646  0.46387742    -0.81800
O124        O  0.38532391  0.47787847  0.40306670    -0.84500
C125        C  0.41589062  0.48755487  0.39672054     1.03200
O126        O  0.43879027  0.46578717  0.38963266    -0.77200
O127        O  0.47453468  0.40507126  0.39028737    -0.77400
C128        C  0.48302148  0.40312973  0.42204581     1.03200
O129        O  0.43868445  0.34498862  0.39204585    -0.84700
O130        O  0.37514323  0.34628686  0.42217320    -0.81800
C131        C  0.34646720  0.35707921  0.43231897     0.98700
O132        O  0.34150777  0.38916389  0.43778514    -0.81800
O133        O  0.34432869  0.42156360  0.37535517    -0.84400
C134        C  0.35530922  0.43396164  0.34763035     1.03200
O135        O  0.38727093  0.43891415  0.34330677    -0.77300
O136        O  0.41910587  0.37511661  0.34808084    -0.77400
C137        C  0.43051138  0.34711623  0.36025010     1.03200
Cr138      Cr  0.41766715  0.37152454  0.43219109     1.93700
Cr139      Cr  0.36734311  0.43107643  0.41912863     1.93200
Cr140      Cr  0.42815581  0.42001244  0.37043276     1.39100
O141        O  0.40427784  0.40758582  0.40717938    -1.22500
O142        O  0.35483329  0.91020777  0.56961920    -0.84700
O143        O  0.41854522  0.87633478  0.56689588    -0.81800
C144        C  0.44493186  0.85925435  0.57530738     0.98700
O145        O  0.45147819  0.85408922  0.60717926    -0.81800
O146        O  0.45602399  0.91885369  0.63985776    -0.84500
C147        C  0.44726262  0.94654987  0.65462095     1.03200
O148        O  0.41557536  0.95199276  0.66049619    -0.77200
O149        O  0.37804405  0.95212969  0.59950347    -0.77400
C150        C  0.36031374  0.94235302  0.57406660     1.03200
O151        O  0.33323947  0.85769224  0.61751013    -0.84700
O152        O  0.39252917  0.82064401  0.60976851    -0.81800
C153        C  0.39903148  0.81055288  0.64042316     0.98700
O154        O  0.40764388  0.83239269  0.66294331    -0.81800
O155        O  0.41806030  0.89388709  0.69785812    -0.84400
C156        C  0.38881222  0.90183104  0.70990973     1.03200
O157        O  0.36412037  0.90718560  0.68943320    -0.77300
O158        O  0.32372715  0.91187520  0.63139443    -0.77400
C159        C  0.31294835  0.88112483  0.62691625     1.03200
Cr160      Cr  0.37622926  0.86803937  0.59330405     1.93700
Cr161      Cr  0.43064204  0.87589479  0.65022925     1.93200
Cr162      Cr  0.37196993  0.92822860  0.64394950     1.39100
O163        O  0.39301378  0.89087466  0.62908204    -1.22500
C164        C  0.88812214  0.95990506  0.30070158    -0.01900
C165        C  0.55552894  0.71143441  0.38362396    -0.01900
C166        C  0.80133175  0.62882686  0.05890632    -0.01900
O167        O  0.58047490  0.96612101  0.12165521    -0.84700
O168        O  0.54624003  0.90408628  0.12320018    -0.81800
C169        C  0.53892611  0.89836281  0.09162575     0.98700
O170        O  0.56220613  0.89006253  0.07085234    -0.81800
O171        O  0.62565207  0.88664110  0.04023246    -0.84500
C172        C  0.63189068  0.91727386  0.02985183     1.03200
O173        O  0.63564361  0.94142920  0.05124123    -0.77200
O174        O  0.63442726  0.97919480  0.11160319    -0.77400
C175        C  0.60352433  0.98837148  0.11695431     1.03200
O176        O  0.63054211  0.94304343  0.17187091    -0.84700
O177        O  0.60075229  0.87923256  0.16943740    -0.81800
C178        C  0.58965387  0.85054138  0.15926293     0.98700
O179        O  0.58474911  0.84517760  0.12722716    -0.81800
O180        O  0.64982182  0.84797928  0.10004620    -0.84400
C181        C  0.67835713  0.85932651  0.08993870     1.03200
O182        O  0.68171959  0.89094589  0.08146653    -0.77300
O183        O  0.67547898  0.92514011  0.14304378    -0.77400
C184        C  0.66267672  0.93763583  0.16993019     1.03200
Cr185      Cr  0.59135139  0.92193141  0.14392677     1.93700
Cr186      Cr  0.60636672  0.87023473  0.08626931     1.93200
Cr187      Cr  0.65401064  0.93242811  0.09761901     1.39100
O188        O  0.61715195  0.90835797  0.10914888    -1.22500
C189        C  0.73860852  0.79520253  0.04796099    -0.04900
C190        C  0.74603743  0.77323581  0.07626474     0.09300
C191        C  0.73649530  0.78339089  0.10981343    -0.02200
C192        C  0.71751207  0.81407010  0.11463914    -0.00500
C193        C  0.70682913  0.83409790  0.08593279    -0.04100
C194        C  0.71871725  0.82540892  0.05269329     0.02900
C195        C  0.76014835  0.73758068  0.07032612     0.09700
C196        C  0.74449590  0.76121775  0.13912398     0.35600
C197        C  0.70840677  0.84595515  0.02298116     0.39100
C198        C  0.79416304  0.72953727  0.07892176    -0.04500
C199        C  0.80699884  0.69546679  0.07479476     0.02700
C200        C  0.78589402  0.66764586  0.06103840    -0.04100
C201        C  0.75003466  0.67690498  0.05464524    -0.00300
C202        C  0.73824560  0.71143496  0.05835717    -0.02900
C203        C  0.81620765  0.75695717  0.09224238     0.36400
C204        C  0.72251488  0.65211788  0.04872116     0.40000
C205        C  0.84297715  0.69107264  0.08393575     0.39100
C206        C  0.70219346  0.72004783  0.05204670     0.36100
C207        C  0.74988101  0.78557223  0.01370812     0.36700
C208        C  0.70840609  0.82470908  0.14919213     0.40000
N209        N  0.87178321  0.69117350  0.09171727    -0.38100
N210        N  0.83364614  0.77874801  0.10301179    -0.39700
N211        N  0.69916986  0.63386055  0.04474849    -0.37400
N212        N  0.67356174  0.72696367  0.04732769    -0.39800
N213        N  0.75089089  0.74345102  0.16242924    -0.39600
N214        N  0.70151386  0.83299859  0.17694231    -0.37200
N215        N  0.70023404  0.86204819  0.99903699    -0.38300
N216        N  0.75887205  0.77775926  0.98640701    -0.39900
C217        C  0.58617691  0.77428247  0.30862350    -0.04900
C218        C  0.56542371  0.76541895  0.28038014     0.09300
C219        C  0.54092949  0.73912375  0.28413500    -0.02200
C220        C  0.53618554  0.72192448  0.31635442    -0.00500
C221        C  0.55645675  0.73094497  0.34663091    -0.04100
C222        C  0.58188799  0.75793889  0.34110177     0.02900
C223        C  0.56888601  0.78480792  0.24674210     0.09700
C224        C  0.52131493  0.72885068  0.25369945     0.35600
C225        C  0.60250846  0.77215225  0.36906272     0.39100
C226        C  0.59261508  0.77389175  0.22148395    -0.04500
C227        C  0.59757853  0.79377286  0.19108836     0.02700
C228        C  0.57957823  0.82520985  0.18633664    -0.04100
C229        C  0.55535030  0.83564650  0.21129209    -0.00300
C230        C  0.54976525  0.81540289  0.24105512    -0.02900
C231        C  0.61307703  0.74308254  0.22767479     0.36400
C232        C  0.53685241  0.86810737  0.20690875     0.40000
C233        C  0.62242833  0.78280838  0.16566030     0.39100
C234        C  0.52509539  0.82705048  0.26635053     0.36100
C235        C  0.61214923  0.80103760  0.30413116     0.36700
C236        C  0.51163461  0.69382639  0.31536134     0.40000
N237        N  0.64215753  0.77382186  0.14533725    -0.38100
N238        N  0.62957087  0.71863864  0.23288531    -0.39700
N239        N  0.52237259  0.89410160  0.20349166    -0.37400
N240        N  0.50512862  0.83731767  0.28579932    -0.39800
N241        N  0.50609326  0.72054198  0.22930082    -0.39600
N242        N  0.49190446  0.67163556  0.31186577    -0.37200
N243        N  0.61940253  0.78579798  0.38965098    -0.38300
N244        N  0.63285140  0.82225264  0.30050284    -0.39900
C245        C  0.81251505  0.97099853  0.23148275    -0.04900
C246        C  0.78301394  0.96687131  0.25189808     0.09300
C247        C  0.78695112  0.96692564  0.28781596    -0.02200
C248        C  0.81999999  0.96355706  0.30307499    -0.00500
C249        C  0.85116135  0.96685570  0.28293477    -0.04100
C250        C  0.84549977  0.97502712  0.24693435     0.02900
C251        C  0.74798442  0.96166093  0.23559234     0.09700
C252        C  0.75645971  0.96941236  0.30921223     0.35600
C253        C  0.87109113  0.99029553  0.22481382     0.39100
C254        C  0.72974211  0.93013443  0.24026844    -0.04500
C255        C  0.69876427  0.92405676  0.22193332     0.02700
C256        C  0.68675653  0.94847513  0.19764770    -0.04100
C257        C  0.70301015  0.98105793  0.19531041    -0.00300
C258        C  0.73314100  0.98787903  0.21469314    -0.02900
C259        C  0.74313209  0.90339450  0.26307165     0.36400
C260        C  0.68918990  0.00733851  0.17224127     0.40000
C261        C  0.67901345  0.89280121  0.22806905     0.39100
C262        C  0.74937379  0.02162660  0.21244862     0.36100
C263        C  0.80918387  0.96984294  0.19407687     0.36700
C264        C  0.81990876  0.95406819  0.33927577     0.40000
N265        N  0.66285811  0.86821972  0.23346740    -0.38100
N266        N  0.75340385  0.88203279  0.28147881    -0.39700
N267        N  0.67828203  0.02855312  0.15404474    -0.37400
N268        N  0.76246541  0.04847027  0.21050230    -0.39800
N269        N  0.73218397  0.97161307  0.32617594    -0.39600
N270        N  0.81638707  0.94639367  0.36793761    -0.37200
N271        N  0.88939717  0.00349119  0.20538990    -0.38300
N272        N  0.80659464  0.96876060  0.16431215    -0.39900
C273        C  0.51903961  0.81692957  0.52512443    -0.04900
C274        C  0.50110784  0.80226691  0.49688578     0.09300
C275        C  0.46527195  0.80720621  0.49399135    -0.02200
C276        C  0.44738828  0.82662862  0.51886632    -0.00500
C277        C  0.46506892  0.84116201  0.54768498    -0.04100
C278        C  0.50108505  0.83581179  0.55070461     0.02900
C279        C  0.51916907  0.78087571  0.47001332     0.09700
C280        C  0.44647314  0.79131731  0.46561840     0.35600
C281        C  0.51984034  0.84951976  0.58012153     0.39100
C282        C  0.52514346  0.74552169  0.47559887    -0.04500
C283        C  0.53764652  0.72401956  0.44875132     0.02700
C284        C  0.54287415  0.73700992  0.41403202    -0.04100
C285        C  0.53262240  0.77284053  0.40892296    -0.00300
C286        C  0.52462996  0.79466608  0.43708328    -0.02900
C287        C  0.51816765  0.73116675  0.50957859     0.36400
C288        C  0.52393066  0.78759242  0.37557910     0.40000
C289        C  0.54579485  0.68876966  0.45880882     0.39100
C290        C  0.51948152  0.83164617  0.43174704     0.36100
C291        C  0.55599261  0.81251733  0.52779242     0.36700
C292        C  0.41027742  0.82973930  0.51536680     0.40000
N293        N  0.55152589  0.66143306  0.46975568    -0.38100
N294        N  0.51254672  0.71984916  0.53665408    -0.39700
N295        N  0.51566018  0.80033969  0.34975989    -0.37400
N296        N  0.51547401  0.86106240  0.42752820    -0.39800
N297        N  0.43143376  0.77860158  0.44310066    -0.39600
N298        N  0.38070772  0.83211740  0.51240968    -0.37200
N299        N  0.53491618  0.86005049  0.60373058    -0.38300
N300        N  0.58551853  0.80908453  0.52991209    -0.39900
C301        C  0.44907599  0.57283276  0.36137635    -0.04900
C302        C  0.45675975  0.59113234  0.39197054     0.09300
C303        C  0.44688210  0.57694686  0.42413328    -0.02200
C304        C  0.43146160  0.54375278  0.42576463    -0.00500
C305        C  0.42531245  0.52483600  0.39520834    -0.04100
C306        C  0.43334700  0.53992135  0.36297776     0.02900
C307        C  0.48101265  0.62153355  0.39066236     0.09700
C308        C  0.45462305  0.59562516  0.45565680     0.35600
C309        C  0.42700572  0.52072501  0.33141018     0.39100
C310        C  0.46916796  0.65576923  0.38933805    -0.04500
C311        C  0.49262784  0.68393971  0.38640952     0.02700
C312        C  0.52952945  0.67870187  0.38596977    -0.04100
C313        C  0.54021090  0.64306641  0.39222039    -0.00300
C314        C  0.51641558  0.61535068  0.39163735    -0.02900
C315        C  0.43232479  0.66186743  0.39030452     0.36400
C316        C  0.57393472  0.63300146  0.40489909     0.40000
C317        C  0.47727950  0.71787637  0.38188237     0.39100
C318        C  0.52839577  0.57962158  0.39412954     0.36100
C319        C  0.45957364  0.58678675  0.32830105     0.36700
C320        C  0.42451844  0.52786589  0.45895446     0.40000
N321        N  0.46273569  0.74373691  0.37785693    -0.38100
N322        N  0.40295765  0.66667119  0.39122546    -0.39700
N323        N  0.59992189  0.62332209  0.41603280    -0.37400
N324        N  0.53778248  0.55124064  0.39621706    -0.39800
N325        N  0.46082918  0.61057716  0.48079485    -0.39600
N326        N  0.41923653  0.51495763  0.48538986    -0.37200
N327        N  0.42210126  0.50539810  0.30621879    -0.38300
N328        N  0.46806939  0.59750820  0.30177494    -0.39900
C329        C  0.22942867  0.47846577  0.23521287    -0.04900
C330        C  0.23476089  0.45791967  0.26458274     0.09300
C331        C  0.20660300  0.44134210  0.27997556    -0.02200
C332        C  0.17345776  0.44307161  0.26473924    -0.00500
C333        C  0.16733037  0.46196847  0.23301628    -0.04100
C334        C  0.19605127  0.48248080  0.22077190     0.02900
C335        C  0.26940084  0.45646261  0.28183071     0.09700
C336        C  0.21220145  0.42082077  0.31107154     0.35600
C337        C  0.19243899  0.51162526  0.19729535     0.39100
C338        C  0.27512990  0.47611174  0.31193085    -0.04500
C339        C  0.30500148  0.47068328  0.33192413     0.02700
C340        C  0.32932866  0.44544420  0.32200302    -0.04100
C341        C  0.32528687  0.42817403  0.29027057    -0.00300
C342        C  0.29548970  0.43400681  0.26990753    -0.02900
C343        C  0.24965390  0.50123185  0.32280744     0.36400
C344        C  0.35076885  0.40301698  0.27969937     0.40000
C345        C  0.31023076  0.49053178  0.36330108     0.39100
C346        C  0.29165417  0.41665779  0.23701626     0.36100
C347        C  0.25861833  0.49676814  0.22058032     0.36700
C348        C  0.14696321  0.42222886  0.28092142     0.40000
N349        N  0.31417886  0.50652196  0.38824102    -0.38100
N350        N  0.22924940  0.52119648  0.33138280    -0.39700
N351        N  0.37121442  0.38293774  0.27150831    -0.37400
N352        N  0.28937598  0.40306767  0.21051231    -0.39800
N353        N  0.21647793  0.40445349  0.33580256    -0.39600
N354        N  0.12731349  0.40489348  0.29515758    -0.37200
N355        N  0.19106950  0.53578831  0.17955744    -0.38300
N356        N  0.28192485  0.51117688  0.20889600    -0.39900
C357        C  0.32001814  0.99208817  0.49772946    -0.04900
C358        C  0.30185327  0.01837021  0.51518010     0.09300
C359        C  0.30307533  0.01956079  0.55152228    -0.02200
C360        C  0.32326839  0.99563796  0.57031140    -0.00500
C361        C  0.34156555  0.96905532  0.55304833    -0.04100
C362        C  0.33944429  0.96720649  0.51660072     0.02900
C363        C  0.28116173  0.04529201  0.49590605     0.09700
C364        C  0.28229763  0.04477520  0.56970093     0.35600
C365        C  0.35762979  0.94011097  0.49848214     0.39100
C366        C  0.24726944  0.03841031  0.48575449    -0.04500
C367        C  0.22597315  0.06490931  0.47175220     0.02700
C368        C  0.23775262  0.10037899  0.46819031    -0.04100
C369        C  0.27253214  0.10650754  0.48095178    -0.00300
C370        C  0.29396439  0.07896241  0.49248816    -0.02900
C371        C  0.23419529  0.00336712  0.49001719     0.36400
C372        C  0.28684317  0.14050933  0.48750168     0.40000
C373        C  0.19253386  0.05343831  0.45958585     0.39100
C374        C  0.32934815  0.08558677  0.50329135     0.36100
C375        C  0.31836074  0.99055932  0.46037560     0.36700
C376        C  0.32329300  0.99736144  0.60776452     0.40000
N377        N  0.16709526  0.04083437  0.45031688    -0.38100
N378        N  0.22392958  0.97543816  0.49340188    -0.39700
N379        N  0.29974307  0.16671679  0.49403387    -0.37400
N380        N  0.35738454  0.09088798  0.51205704    -0.39800
N381        N  0.26542740  0.06464520  0.58413141    -0.39600
N382        N  0.32322720  0.99885016  0.63759300    -0.37200
N383        N  0.37210670  0.91844469  0.48398146    -0.38300
N384        N  0.31686877  0.98936438  0.43055450    -0.39900
C385        C  0.30596545  0.27758584  0.47196709    -0.04900
C386        C  0.27946397  0.27025499  0.44794893     0.09300
C387        C  0.27183436  0.29449045  0.42152309    -0.02200
C388        C  0.29216185  0.32464312  0.41772799    -0.00500
C389        C  0.32002857  0.33070785  0.44045608    -0.04100
C390        C  0.32609606  0.30770064  0.46825957     0.02900
C391        C  0.26107486  0.23600387  0.44939981     0.09700
C392        C  0.24365015  0.28780120  0.39774328     0.35600
C393        C  0.35375951  0.31462784  0.49269225     0.39100
C394        C  0.23459790  0.23040363  0.47298505    -0.04500
C395        C  0.21809445  0.19763592  0.47569639     0.02700
C396        C  0.22890521  0.16823873  0.45517486    -0.04100
C397        C  0.25591521  0.17579189  0.43048180    -0.00300
C398        C  0.27118350  0.20899604  0.42780112    -0.02900
C399        C  0.22368099  0.25946895  0.49409268     0.36400
C400        C  0.27169672  0.14923771  0.40942309     0.40000
C401        C  0.18873751  0.19743672  0.49831494     0.39100
C402        C  0.29882772  0.21525345  0.40338516     0.36100
C403        C  0.31331802  0.25369067  0.50001724     0.36700
C404        C  0.28564433  0.34845563  0.38943062     0.40000
N405        N  0.16545070  0.20017593  0.51652988    -0.38100
N406        N  0.21506687  0.28270276  0.51072476    -0.39700
N407        N  0.28669133  0.13018624  0.39211375    -0.37400
N408        N  0.32084203  0.22027151  0.38404642    -0.39800
N409        N  0.22109673  0.28234846  0.37884738    -0.39600
N410        N  0.28070857  0.36745344  0.36676189    -0.37200
N411        N  0.37574415  0.32007330  0.51225849    -0.38300
N412        N  0.31952537  0.23511921  0.52272907    -0.39900
C413        C  0.56546413  0.06905337  0.15638790    -0.04900
C414        C  0.55938935  0.08952814  0.12673702     0.09300
C415        C  0.57308339  0.07906147  0.09469440    -0.02200
C416        C  0.59072601  0.04716149  0.09197889    -0.00500
C417        C  0.59383605  0.02526954  0.12097382    -0.04100
C418        C  0.58249245  0.03697887  0.15349817     0.02900
C419        C  0.53514311  0.11975549  0.12854497     0.09700
C420        C  0.56731604  0.10025759  0.06425361     0.35600
C421        C  0.58762981  0.01562363  0.18401888     0.39100
C422        C  0.54735248  0.15357748  0.13252807    -0.04500
C423        C  0.52418355  0.18182699  0.13549689     0.02700
C424        C  0.48725129  0.17714270  0.13339617    -0.04100
C425        C  0.47628169  0.14213592  0.12491503    -0.00300
C426        C  0.49974282  0.11409556  0.12518810    -0.02900
C427        C  0.58430226  0.15908298  0.13453636     0.36400
C428        C  0.44255656  0.13341304  0.11111710     0.40000
C429        C  0.53986104  0.21505143  0.14294777     0.39100
C430        C  0.48752331  0.07874939  0.12035349     0.36100
C431        C  0.55272997  0.08013785  0.18966029     0.36700
C432        C  0.60448449  0.03601934  0.05922800     0.40000
N433        N  0.55504669  0.24005816  0.14921062    -0.38100
N434        N  0.61373730  0.16340092  0.13604750    -0.39700
N435        N  0.41647588  0.12518716  0.09905472    -0.37400
N436        N  0.47791001  0.05064015  0.11655138    -0.39800
N437        N  0.56251146  0.11724066  0.04001957    -0.39600
N438        N  0.61601425  0.02673034  0.03342950    -0.37200
N439        N  0.59164711  0.99889541  0.20856965    -0.38300
N440        N  0.54272426  0.08849281  0.21642981    -0.39900
C441        C  0.41176799  0.28017778  0.29070344    -0.04900
C442        C  0.44473654  0.27670656  0.27570882     0.09300
C443        C  0.47339068  0.29153282  0.29301364    -0.02200
C444        C  0.46890839  0.30951133  0.32437816    -0.00500
C445        C  0.43561899  0.31777676  0.33587712    -0.04100
C446        C  0.40700661  0.30233825  0.31930358     0.02900
C447        C  0.44904216  0.25902154  0.24110604     0.09700
C448        C  0.50729405  0.29014050  0.27768595     0.35600
C449        C  0.37258917  0.30953354  0.33150362     0.39100
C450        C  0.43254812  0.27227149  0.21152812    -0.04500
C451        C  0.43633696  0.25616991  0.17897202     0.02700
C452        C  0.46007537  0.22774229  0.17367624    -0.04100
C453        C  0.47714603  0.21518118  0.20468841    -0.00300
C454        C  0.47022499  0.22976710  0.23764056    -0.02900
C455        C  0.41214918  0.30373399  0.21431400     0.36400
C456        C  0.50032148  0.18586809  0.20546446     0.40000
C457        C  0.41743985  0.27220307  0.15063217     0.39100
C458        C  0.48434275  0.21383080  0.26879802     0.36100
C459        C  0.38260881  0.26167661  0.27615975     0.36700
C460        C  0.49855739  0.31848294  0.34526446     0.40000
N461        N  0.40195680  0.28717176  0.12975594    -0.38100
N462        N  0.39575405  0.32864700  0.21634108    -0.39700
N463        N  0.51863113  0.16241429  0.20867118    -0.37400
N464        N  0.49565296  0.20118683  0.29353033    -0.39800
N465        N  0.53428633  0.28916857  0.26532213    -0.39600
N466        N  0.52240921  0.32379380  0.36246583    -0.37200
N467        N  0.34506446  0.31533828  0.34104910    -0.38300
N468        N  0.35937530  0.24691928  0.26449542    -0.39900
C469        C  0.95432934  0.59875089  0.98933524    -0.04900
C470        C  0.92511519  0.60709201  0.96929760     0.09300
C471        C  0.92942019  0.61336436  0.93364169    -0.02200
C472        C  0.96280640  0.61353537  0.91881406    -0.00500
C473        C  0.99260566  0.61011013  0.94004654    -0.04100
C474        C  0.98754520  0.60367853  0.97597820     0.02900
C475        C  0.89082871  0.61250560  0.98675302     0.09700
C476        C  0.89924307  0.61906507  0.91215982     0.35600
C477        C  0.01560098  0.60505234  0.00085113     0.39100
C478        C  0.87827122  0.64611970  0.99260062    -0.04500
C479        C  0.84728515  0.65164558  0.01107279     0.02700
C480        C  0.83184434  0.62409488  0.03110358    -0.04100
C481        C  0.84531317  0.58978630  0.02380352    -0.00300
C482        C  0.87225198  0.58444612  0.99987219    -0.02900
C483        C  0.89799586  0.67552563  0.98015205     0.36400
C484        C  0.83496324  0.55916479  0.04277993     0.40000
C485        C  0.83174078  0.68540299  0.00605963     0.39100
C486        C  0.88213887  0.54963398  0.98975579     0.36100
C487        C  0.95077270  0.58358979  0.02345087     0.36700
C488        C  0.96602510  0.61946213  0.88210615     0.40000
N489        N  0.82022843  0.71253385  0.00046101    -0.38100
N490        N  0.91394933  0.69892110  0.97058668    -0.39700
N491        N  0.82897241  0.53329641  0.05666760    -0.37400
N492        N  0.88989877  0.52196526  0.98146877    -0.39800
N493        N  0.87507177  0.62349451  0.89508779    -0.39600
N494        N  0.96783679  0.62418769  0.85267625    -0.37200
N495        N  0.03676174  0.60773001  0.02182609    -0.38300
N496        N  0.94916132  0.57001290  0.05008557    -0.39900
C497        C  0.09844097  0.53687152  0.06321433    -0.04900
C498        C  0.11969595  0.55031958  0.08958743     0.09300
C499        C  0.13644354  0.58240922  0.08477670    -0.02200
C500        C  0.13367851  0.59993635  0.05276251    -0.00500
C501        C  0.11444783  0.58509958  0.02549169    -0.04100
C502        C  0.09583153  0.55411725  0.03133432     0.02900
C503        C  0.12451932  0.52979811  0.12209279     0.09700
C504        C  0.15750947  0.59661944  0.11233541     0.35600
C505        C  0.07364023  0.54000026  0.00447740     0.39100
C506        C  0.14484701  0.49986497  0.12187162    -0.04500
C507        C  0.14637041  0.47769915  0.15100612     0.02700
C508        C  0.12687702  0.48483733  0.18185226    -0.04100
C509        C  0.10358036  0.51409132  0.17927166    -0.00300
C510        C  0.10476698  0.53736752  0.15104667    -0.02900
C511        C  0.16479316  0.49216167  0.09118685     0.36400
C512        C  0.07312188  0.51787975  0.20012957     0.40000
C513        C  0.16961521  0.44852424  0.14816425     0.39100
C514        C  0.08324897  0.56825543  0.15044529     0.36100
C515        C  0.08005205  0.50457677  0.06860390     0.36700
C516        C  0.15213655  0.63208527  0.04741534     0.40000
N517        N  0.18873130  0.42622360  0.14286497    -0.38100
N518        N  0.18053409  0.48609980  0.06670122    -0.39700
N519        N  0.04713347  0.52131429  0.21403955    -0.37400
N520        N  0.06618327  0.59281988  0.14995126    -0.39800
N521        N  0.17428427  0.60796004  0.13437538    -0.39600
N522        N  0.16694954  0.65776821  0.04346581    -0.37200
N523        N  0.05561299  0.52900169  0.98326120    -0.38300
N524        N  0.06563490  0.47871886  0.07292396    -0.39900
C525        C  0.04319202  0.69960712  0.77491826    -0.04900
C526        C  0.05944375  0.73212133  0.77253613     0.09300
C527        C  0.07914623  0.74439162  0.80082874    -0.02200
C528        C  0.08368622  0.72354688  0.83073660    -0.00500
C529        C  0.06936063  0.68992381  0.83196488    -0.04100
C530        C  0.04890044  0.67823858  0.80389620     0.02900
C531        C  0.05860178  0.75151005  0.73878446     0.09700
C532        C  0.09586638  0.77785951  0.79845508     0.35600
C533        C  0.03514232  0.64325467  0.80375004     0.39100
C534        C  0.03387083  0.77709220  0.73225676    -0.04500
C535        C  0.03348854  0.79586106  0.70061531     0.02700
C536        C  0.05586065  0.78637862  0.67230186    -0.04100
C537        C  0.08025049  0.75895331  0.68005225    -0.00300
C538        C  0.08211016  0.74304918  0.71297483    -0.02900
C539        C  0.00888221  0.78451808  0.75898050     0.36400
C540        C  0.10237578  0.74408146  0.65396128     0.40000
C541        C  0.01214801  0.82663117  0.70084410     0.39100
C542        C  0.10796435  0.71668068  0.72020975     0.36100
C543        C  0.02111649  0.68749889  0.74714376     0.36700
C544        C  0.10519791  0.73561258  0.85898491     0.40000
N545        N  0.99525142  0.85120685  0.70319103    -0.38100
N546        N  0.98889942  0.79022228  0.78021266    -0.39700
N547        N  0.12032380  0.73001467  0.63486522    -0.37400
N548        N  0.12848796  0.69570002  0.72603152    -0.39800
N549        N  0.10924167  0.80455679  0.79640734    -0.39600
N550        N  0.12244185  0.74520225  0.88150060    -0.37200
N551        N  0.02491976  0.61511515  0.80307917    -0.38300
N552        N  0.00302885  0.67709831  0.72570767    -0.39900
C553        C  0.15638201  0.81814596  0.60666381    -0.04900
C554        C  0.16997966  0.83714476  0.63433228     0.09300
C555        C  0.14924324  0.84413760  0.66283018    -0.02200
C556        C  0.11410086  0.83456045  0.66285237    -0.00500
C557        C  0.09829773  0.81658432  0.63394559    -0.04100
C558        C  0.12175851  0.80651937  0.60678291     0.02900
C559        C  0.20663097  0.84951534  0.63362158     0.09700
C560        C  0.16408350  0.86266383  0.69201431     0.35600
C561        C  0.11351910  0.78149139  0.58011560     0.39100
C562        C  0.21588123  0.87796811  0.61264728    -0.04500
C563        C  0.25041731  0.88918973  0.61134628     0.02700
C564        C  0.27602919  0.87213023  0.63114262    -0.04100
C565        C  0.26669356  0.84373269  0.65227937    -0.00300
C566        C  0.23218842  0.83239745  0.65337930    -0.02900
C567        C  0.19005333  0.89494403  0.59128475     0.36400
C568        C  0.29268799  0.82604769  0.67289144     0.40000
C569        C  0.25967526  0.91676349  0.58771472     0.39100
C570        C  0.22305728  0.80246266  0.67410071     0.36100
C571        C  0.17900500  0.80941283  0.57820238     0.36700
C572        C  0.09439089  0.84681254  0.69210013     0.40000
N573        N  0.26624653  0.93855651  0.56830645    -0.38100
N574        N  0.16979961  0.90840165  0.57377060    -0.39700
N575        N  0.31348554  0.81197346  0.68924706    -0.37400
N576        N  0.21567704  0.77857586  0.69057915    -0.39800
N577        N  0.17595738  0.87725058  0.71528311    -0.39600
N578        N  0.08058725  0.85797696  0.71598296    -0.37200
N579        N  0.10885586  0.76115843  0.55865778    -0.38300
N580        N  0.19703795  0.80255484  0.55559226    -0.39900
C581        C  0.38571046  0.52421313  0.61605490    -0.04900
C582        C  0.38015766  0.48839907  0.61862692     0.09300
C583        C  0.37045165  0.47436014  0.65035697    -0.02200
C584        C  0.36869089  0.49535968  0.68026368    -0.00500
C585        C  0.37567296  0.53231633  0.67919873    -0.04100
C586        C  0.38148472  0.54625392  0.64499997     0.02900
C587        C  0.38105997  0.46610445  0.58683363     0.09700
C588        C  0.36307269  0.43743636  0.65228950     0.35600
C589        C  0.37981964  0.58267234  0.63647600     0.39100
C590        C  0.40818817  0.44236374  0.58097210    -0.04500
C591        C  0.40987301  0.42398035  0.54944414     0.02700
C592        C  0.38548475  0.43061798  0.52308931    -0.04100
C593        C  0.35656993  0.45163748  0.53046095    -0.00300
C594        C  0.35430988  0.46906609  0.56221760    -0.02900
C595        C  0.43485908  0.43741471  0.60685096     0.36400
C596        C  0.32882254  0.45520906  0.50536834     0.40000
C597        C  0.43703246  0.39892851  0.54389103     0.39100
C598        C  0.32467502  0.49069656  0.56943784     0.36100
C599        C  0.39555587  0.53861637  0.58278556     0.36700
C600        C  0.36203350  0.47651743  0.71186283     0.40000
N601        N  0.45851846  0.37868993  0.53953586    -0.38100
N602        N  0.45631347  0.43294733  0.62727044    -0.39700
N603        N  0.30664623  0.45804059  0.48543796    -0.37400
N604        N  0.30117992  0.50803493  0.57537721    -0.39800
N605        N  0.35745533  0.40804244  0.65382277    -0.39600
N606        N  0.35658022  0.45801097  0.73474115    -0.37200
N607        N  0.37760823  0.61089574  0.62657828    -0.38300
N608        N  0.40331880  0.55022489  0.55639064    -0.39900
C609        C  0.36222267  0.65594705  0.70515455    -0.04900
C610        C  0.39092574  0.66615716  0.68605012     0.09300
C611        C  0.41832785  0.64275385  0.68245280    -0.02200
C612        C  0.41588857  0.60836835  0.69535732    -0.00500
C613        C  0.38412755  0.59516863  0.70937440    -0.04100
C614        C  0.35983805  0.62198869  0.71882295     0.02900
C615        C  0.39375820  0.70282516  0.67293258     0.09700
C616        C  0.44844147  0.65348047  0.66309165     0.35600
C617        C  0.33555149  0.61856438  0.74684082     0.39100
C618        C  0.41739786  0.72581461  0.68847398    -0.04500
C619        C  0.42066085  0.76002211  0.67613667     0.02700
C620        C  0.39799206  0.77294771  0.65019331    -0.04100
C621        C  0.37386266  0.74996366  0.63497153    -0.00300
C622        C  0.37226694  0.71496195  0.64583948    -0.02900
C623        C  0.43783120  0.71452054  0.71797907     0.36400
C624        C  0.34984527  0.76230627  0.60884784     0.40000
C625        C  0.44874712  0.78114507  0.68917274     0.39100
C626        C  0.34779991  0.69161379  0.62966610     0.36100
C627        C  0.33540240  0.68128131  0.71205781     0.36700
C628        C  0.44717536  0.58818638  0.69391976     0.40000
N629        N  0.47153793  0.79765103  0.69922377    -0.38100
N630        N  0.45398005  0.70551759  0.74158414    -0.39700
N631        N  0.33062299  0.77206284  0.58801224    -0.37400
N632        N  0.32800913  0.67320550  0.61686061    -0.39800
N633        N  0.47227975  0.66198839  0.64748520    -0.39600
N634        N  0.47395481  0.57512793  0.69285145    -0.37200
N635        N  0.31630653  0.61820361  0.76949646    -0.38300
N636        N  0.31400073  0.70136689  0.71737856    -0.39900
C637        C  0.27797812  0.56263222  0.73047134    -0.04900
C638        C  0.27288993  0.54638213  0.76253800     0.09300
C639        C  0.29956676  0.52543409  0.77556239    -0.02200
C640        C  0.33362291  0.52899763  0.76307132    -0.00500
C641        C  0.34034745  0.54731117  0.73115193    -0.04100
C642        C  0.30974800  0.55899458  0.71300936     0.02900
C643        C  0.24209570  0.55444597  0.78500331     0.09700
C644        C  0.29189543  0.50104308  0.80322020     0.35600
C645        C  0.31019038  0.57142583  0.67768745     0.39100
C646        C  0.20760439  0.54984516  0.77355296    -0.04500
C647        C  0.17966975  0.56054478  0.79450618     0.02700
C648        C  0.18562399  0.57083513  0.82914460    -0.04100
C649        C  0.22005058  0.57009714  0.84180633    -0.00300
C650        C  0.24775532  0.56628191  0.81912824    -0.02900
C651        C  0.20063501  0.53342974  0.74060443     0.36400
C652        C  0.22756525  0.57046773  0.87867340     0.40000
C653        C  0.14529478  0.56150016  0.77994144     0.39100
C654        C  0.28214059  0.57481016  0.83143189     0.36100
C655        C  0.25223876  0.58651131  0.71701204     0.36700
C656        C  0.35964259  0.51181362  0.78381320     0.40000
N657        N  0.11804355  0.56264761  0.76768156    -0.38100
N658        N  0.19503814  0.52035808  0.71433426    -0.39700
N659        N  0.23361573  0.57029967  0.90796072    -0.37400
N660        N  0.30943785  0.58160629  0.84153794    -0.39800
N661        N  0.28572584  0.48163756  0.82512578    -0.39600
N662        N  0.37851397  0.49685311  0.80169588    -0.37200
N663        N  0.30728267  0.58149442  0.64966011    -0.38300
N664        N  0.23200473  0.60585872  0.70631961    -0.39900
C665        C  0.44571033  0.87351736  0.07210742    -0.04900
C666        C  0.43816740  0.89516597  0.04355436     0.09300
C667        C  0.46258485  0.92017371  0.03324340    -0.02200
C668        C  0.49475281  0.92254216  0.05039646    -0.00500
C669        C  0.50284315  0.90003385  0.07820037    -0.04100
C670        C  0.47774898  0.87619222  0.08961709     0.02900
C671        C  0.40443600  0.89187269  0.02420547     0.09700
C672        C  0.45477428  0.94302006  0.00443345     0.35600
C673        C  0.48535181  0.85343369  0.11851511     0.39100
C674        C  0.37662185  0.91306582  0.03259970    -0.04500
C675        C  0.34595386  0.91313707  0.01231695     0.02700
C676        C  0.34041699  0.88844607  0.98445668    -0.04100
C677        C  0.37000931  0.86687768  0.97702765    -0.00300
C678        C  0.40120230  0.86917633  0.99629275    -0.02900
C679        C  0.38054083  0.93649557  0.06178376     0.36400
C680        C  0.36933766  0.84027928  0.95071847     0.40000
C681        C  0.32399725  0.94253981  0.01911031     0.39100
C682        C  0.43051691  0.84756660  0.98763939     0.36100
C683        C  0.42083375  0.84773711  0.08276352     0.36700
C684        C  0.51958753  0.94839991  0.03959938     0.40000
N685        N  0.30888076  0.96737282  0.02597697    -0.38100
N686        N  0.38368476  0.95516082  0.08491002    -0.39700
N687        N  0.37173466  0.81800517  0.93097313    -0.37400
N688        N  0.45391107  0.83040163  0.98088193    -0.39800
N689        N  0.44843657  0.96118378  0.98142016    -0.39600
N690        N  0.53941229  0.96907699  0.03118357    -0.37200
N691        N  0.49123071  0.83525884  0.14163404    -0.38300
N692        N  0.40108286  0.82699214  0.09115612    -0.39900
C693        C  0.35765690  0.92793054  0.88134335    -0.04900
C694        C  0.35050919  0.90543093  0.85398861     0.09300
C695        C  0.32989657  0.87638346  0.85973826    -0.02200
C696        C  0.31827226  0.86808904  0.89323206    -0.00500
C697        C  0.32187412  0.89225696  0.92171555    -0.04100
C698        C  0.34327894  0.92213666  0.91447648     0.02900
C699        C  0.36568099  0.91069977  0.81885124     0.09700
C700        C  0.32163505  0.85389628  0.83062401     0.35600
C701        C  0.34930438  0.94922001  0.93963984     0.39100
C702        C  0.39352077  0.88994128  0.80828639    -0.04500
C703        C  0.40224230  0.88778334  0.77298872     0.02700
C704        C  0.38325112  0.90679031  0.74789733    -0.04100
C705        C  0.35801454  0.93073803  0.75944869    -0.00300
C706        C  0.34912293  0.93233543  0.79463552    -0.02900
C707        C  0.41254831  0.87006224  0.83393224     0.36400
C708        C  0.34121873  0.95438008  0.73544670     0.40000
C709        C  0.43001744  0.86507122  0.76288889     0.39100
C710        C  0.32239530  0.95590096  0.80577284     0.36100
C711        C  0.37902003  0.95807950  0.87478027     0.36700
C712        C  0.30763879  0.83235093  0.89668869     0.40000
N713        N  0.45248541  0.84701688  0.75539361    -0.38100
N714        N  0.42772019  0.85444101  0.85455598    -0.39700
N715        N  0.32779919  0.97339383  0.71651665    -0.37400
N716        N  0.30125311  0.97516856  0.81411585    -0.39800
N717        N  0.31510502  0.83610224  0.80749410    -0.39600
N718        N  0.30051697  0.80327031  0.89715955    -0.37200
N719        N  0.35511029  0.97239984  0.95762812    -0.38300
N720        N  0.39584410  0.98219280  0.86938240    -0.39900
C721        C  0.27785085  0.78890059  0.98226469    -0.04900
C722        C  0.24931997  0.78459885  0.96035346     0.09300
C723        C  0.23687025  0.81326335  0.94184443    -0.02200
C724        C  0.25396281  0.84567951  0.94330436    -0.00500
C725        C  0.28574605  0.85031829  0.96262741    -0.04100
C726        C  0.29547222  0.82117748  0.98434672     0.02900
C727        C  0.23055775  0.75042802  0.95811371     0.09700
C728        C  0.20690517  0.80871326  0.91948064     0.35600
C729        C  0.32079298  0.82349927  0.01190861     0.39100
C730        C  0.19844013  0.74657881  0.97441468    -0.04500
C731        C  0.17816328  0.71684592  0.96843954     0.02700
C732        C  0.18983767  0.69026891  0.94626525    -0.04100
C733        C  0.22269099  0.69333152  0.93125310    -0.00300
C734        C  0.24306875  0.72317139  0.93733828    -0.02900
C735        C  0.18571979  0.77398336  0.99646161     0.36400
C736        C  0.23459342  0.66729899  0.90733262     0.40000
C737        C  0.14463497  0.71412464  0.98447769     0.39100
C738        C  0.27643426  0.72616172  0.92116209     0.36100
C739        C  0.28817450  0.75988507  0.00399158     0.36700
C740        C  0.23927265  0.87241677  0.92137473     0.40000
N741        N  0.11785705  0.71203048  0.99717663    -0.38100
N742        N  0.17561218  0.79601306  0.01384324    -0.39700
N743        N  0.24471369  0.64728169  0.88773162    -0.37400
N744        N  0.30308824  0.72774375  0.90814331    -0.39800
N745        N  0.18317191  0.80506175  0.90163370    -0.39600
N746        N  0.22503569  0.89127519  0.90288950    -0.37200
N747        N  0.34012403  0.82401019  0.03480127    -0.38300
N748        N  0.29612522  0.73675985  0.02138076    -0.39900
C749        C  0.73743994  0.57997221  0.99600772    -0.04900
C750        C  0.72826121  0.55005598  0.01426205     0.09300
C751        C  0.73991610  0.54585798  0.04834803    -0.02200
C752        C  0.76138045  0.57109416  0.06434402    -0.00500
C753        C  0.77328454  0.60131035  0.04542651    -0.04100
C754        C  0.76093089  0.60407861  0.01016926     0.02900
C755        C  0.71029402  0.52099153  0.99553811     0.09700
C756        C  0.73133208  0.51391748  0.06639317     0.35600
C757        C  0.76971019  0.63306848  0.98797041     0.39100
C758        C  0.72770774  0.50397614  0.96862054    -0.04500
C759        C  0.71046626  0.47941182  0.94807678     0.02700
C760        C  0.67691530  0.46836267  0.95670459    -0.04100
C761        C  0.65971794  0.48445987  0.98432813    -0.00300
C762        C  0.67599959  0.51142295  0.00308596    -0.02900
C763        C  0.76353284  0.51211939  0.96177762     0.36400
C764        C  0.62499370  0.47388001  0.99274522     0.40000
C765        C  0.72694526  0.46745766  0.91685275     0.39100
C766        C  0.65728754  0.52981256  0.02954140     0.36100
C767        C  0.72237748  0.58585522  0.96195084     0.36700
C768        C  0.77326863  0.56177348  0.09871424     0.40000
N769        N  0.74105110  0.45936336  0.89194514    -0.38100
N770        N  0.79205376  0.51873627  0.95646359    -0.39700
N771        N  0.59726931  0.46533874  0.99937150    -0.37400
N772        N  0.64234683  0.54454771  0.05064067    -0.39800
N773        N  0.72459735  0.48844417  0.08064616    -0.39600
N774        N  0.78198244  0.55220141  0.12577661    -0.37200
N775        N  0.77456625  0.65528981  0.96849733    -0.38300
N776        N  0.71026968  0.59050652  0.93493894    -0.39900
C777        C  0.55870486  0.30584877  0.02668470    -0.04900
C778        C  0.52255506  0.30290235  0.02629226     0.09300
C779        C  0.50347854  0.31990057  0.00004925    -0.02200
C780        C  0.52052731  0.33899196  0.97389162    -0.00500
C781        C  0.55688755  0.34144709  0.97382583    -0.04100
C782        C  0.57578938  0.32496203  0.00081658     0.02900
C783        C  0.50508589  0.28089704  0.05328672     0.09700
C784        C  0.46625727  0.31765948  0.99998067     0.35600
C785        C  0.61312520  0.32599290  0.00133444     0.39100
C786        C  0.50038611  0.29354465  0.08674579    -0.04500
C787        C  0.48903433  0.27148425  0.11380810     0.02700
C788        C  0.47661362  0.23655104  0.10700894    -0.04100
C789        C  0.48261744  0.22455568  0.07212699    -0.00300
C790        C  0.49763759  0.24609856  0.04656822    -0.02900
C791        C  0.51021246  0.32920356  0.09388852     0.36400
C792        C  0.47253916  0.19041433  0.06034579     0.40000
C793        C  0.49574649  0.28503525  0.14813403     0.39100
C794        C  0.50661947  0.23206050  0.01301370     0.36100
C795        C  0.57843394  0.28828097  0.05348045     0.36700
C796        C  0.50051464  0.35673496  0.94753100     0.40000
N797        N  0.50242389  0.29693892  0.17477420    -0.38100
N798        N  0.51837078  0.35744222  0.09962221    -0.39700
N799        N  0.46532267  0.16422550  0.04778198    -0.37400
N800        N  0.51426384  0.22085788  0.98647890    -0.39800
N801        N  0.43652747  0.31597784  0.99986954    -0.39600
N802        N  0.48437074  0.37100882  0.92667922    -0.37200
N803        N  0.64289441  0.32678095  0.00186346    -0.38300
N804        N  0.59395500  0.27420051  0.07493502    -0.39900
C805        C  0.48293193  0.46272110  0.81925477    -0.04900
C806        C  0.48869365  0.49667386  0.80716567     0.09300
C807        C  0.52033275  0.51314212  0.81482778    -0.02200
C808        C  0.54633251  0.49540951  0.83364349    -0.00500
C809        C  0.54150246  0.46046969  0.84382804    -0.04100
C810        C  0.50937384  0.44429143  0.83631361     0.02900
C811        C  0.46277415  0.51321669  0.78315364     0.09700
C812        C  0.52659626  0.54799338  0.80231030     0.35600
C813        C  0.50401466  0.40765419  0.84305271     0.39100
C814        C  0.44306866  0.54175590  0.79333913    -0.04500
C815        C  0.41733357  0.55585667  0.77108979     0.02700
C816        C  0.40959454  0.54069543  0.73786157    -0.04100
C817        C  0.43443293  0.51513918  0.72651277    -0.00300
C818        C  0.45854859  0.50023500  0.74966052    -0.02900
C819        C  0.44809478  0.55547691  0.82792971     0.36400
C820        C  0.44145343  0.50798267  0.69047483     0.40000
C821        C  0.39869523  0.58514922  0.78464381     0.39100
C822        C  0.48044901  0.47187328  0.73836567     0.36100
C823        C  0.45011218  0.44593262  0.81252029     0.36700
C824        C  0.57816492  0.51317902  0.84209169     0.40000
N825        N  0.38637799  0.60843940  0.79862376    -0.38100
N826        N  0.45215205  0.56634817  0.85546989    -0.39700
N827        N  0.44933819  0.50246704  0.66227487    -0.37400
N828        N  0.49763770  0.44916814  0.72945350    -0.39800
N829        N  0.53150518  0.57586294  0.79242454    -0.39600
N830        N  0.60356459  0.52736353  0.84882209    -0.37200
N831        N  0.49970042  0.37837776  0.84787140    -0.38300
N832        N  0.42417966  0.43220114  0.80706909    -0.39900
C833        C  0.92169697  0.07150973  0.43424274    -0.04900
C834        C  0.89093748  0.05619737  0.42195572     0.09300
C835        C  0.86063537  0.05923350  0.44152361    -0.02200
C836        C  0.86186986  0.07412186  0.47470633    -0.00500
C837        C  0.89333454  0.08672220  0.48828139    -0.04100
C838        C  0.92275723  0.08711974  0.46720336     0.02900
C839        C  0.89112511  0.03239771  0.39137238     0.09700
C840        C  0.82843935  0.04581398  0.42785622     0.35600
C841        C  0.95451867  0.10208755  0.48012520     0.39100
C842        C  0.89644205  0.99692415  0.39679902    -0.04500
C843        C  0.89230554  0.97288076  0.36955360     0.02700
C844        C  0.88746458  0.98436949  0.33418699    -0.04100
C845        C  0.88139681  0.02114475  0.32987470    -0.00300
C846        C  0.88261122  0.04429871  0.35822436    -0.02900
C847        C  0.90525737  0.98498802  0.43149321     0.36400
C848        C  0.87595462  0.03674794  0.29616023     0.40000
C849        C  0.88859355  0.93739235  0.38102980     0.39100
C850        C  0.87588446  0.08097816  0.35323003     0.36100
C851        C  0.95260147  0.07024576  0.41365268     0.36700
C852        C  0.83074451  0.07622613  0.49503315     0.40000
N853        N  0.88469644  0.91016925  0.39296310    -0.38100
N854        N  0.91235474  0.97563953  0.45906351    -0.39700
N855        N  0.87171280  0.05119990  0.27025824    -0.37400
N856        N  0.87051220  0.11020028  0.34923676    -0.39800
N857        N  0.80283751  0.03520578  0.41668591    -0.39600
N858        N  0.80587994  0.07795165  0.51118293    -0.37200
N859        N  0.97971762  0.11430614  0.49050332    -0.38300
N860        N  0.97768618  0.06983143  0.39777240    -0.39900
C861        C  0.07970853  0.08942985  0.56827540    -0.04900
C862        C  0.09135006  0.12025944  0.55236520     0.09300
C863        C  0.07094436  0.15043213  0.55447108    -0.02200
C864        C  0.03831881  0.14921794  0.57014426    -0.00500
C865        C  0.02533151  0.11767986  0.58329001    -0.04100
C866        C  0.04678871  0.08816937  0.58375599     0.02900
C867        C  0.12194975  0.11979988  0.52866729     0.09700
C868        C  0.08255710  0.18244874  0.53877832     0.35600
C869        C  0.03432151  0.05613269  0.59858645     0.39100
C870        C  0.11653322  0.11489072  0.49330700    -0.04500
C871        C  0.14408714  0.11664884  0.46961596     0.02700
C872        C  0.17885601  0.12569053  0.48068979    -0.04100
C873        C  0.18378722  0.12650571  0.51778856    -0.00300
C874        C  0.15562469  0.12425979  0.54098295    -0.02900
C875        C  0.08189282  0.10643117  0.48137745     0.36400
C876        C  0.21719945  0.13284613  0.53346052     0.40000
C877        C  0.13483125  0.10530002  0.43507101     0.39100
C878        C  0.16107746  0.12792346  0.57792635     0.36100
C879        C  0.10090021  0.05858227  0.56705659     0.36700
C880        C  0.01784283  0.18055860  0.57247182     0.40000
N881        N  0.12568946  0.09546474  0.40832032    -0.38100
N882        N  0.05451746  0.09932447  0.47184321    -0.39700
N883        N  0.24260161  0.13841128  0.54820535    -0.37400
N884        N  0.16543946  0.13094195  0.60735313    -0.39800
N885        N  0.09105559  0.20827011  0.52623735    -0.39600
N886        N  0.00164953  0.20561335  0.57449094    -0.37200
N887        N  0.02434007  0.03060996  0.61058535    -0.38300
N888        N  0.11790665  0.03400732  0.56607879    -0.39900
C889        C  0.93442482  0.93506154  0.63706346    -0.04900
C890        C  0.96314679  0.92788461  0.61600022     0.09300
C891        C  0.97108202  0.95096149  0.58870379    -0.02200
C892        C  0.95324099  0.98262365  0.58527346    -0.00500
C893        C  0.92656683  0.99107221  0.60830138    -0.04100
C894        C  0.91523095  0.96583747  0.63202468     0.02900
C895        C  0.98627622  0.89730521  0.62337042     0.09700
C896        C  0.99869342  0.94287799  0.56505320     0.35600
C897        C  0.88375325  0.97130200  0.65094490     0.39100
C898        C  0.97475692  0.86312693  0.61930638    -0.04500
C899        C  0.99664465  0.83489524  0.62767983     0.02700
C900        C  0.03331598  0.83957306  0.63305468    -0.04100
C901        C  0.04463931  0.87530333  0.63203197    -0.00300
C902        C  0.02069971  0.90278271  0.63289746    -0.02900
C903        C  0.94013639  0.85690991  0.60639379     0.36400
C904        C  0.07934860  0.88641257  0.62447427     0.40000
C905        C  0.97984012  0.80166609  0.63227010     0.39100
C906        C  0.03204758  0.93740764  0.64228162     0.36100
C907        C  0.92590840  0.91195543  0.66531120     0.36700
C908        C  0.96249019  0.00692549  0.55819250     0.40000
N909        N  0.96454812  0.77627366  0.63628844    -0.38100
N910        N  0.91262317  0.85201263  0.59587035    -0.39700
N911        N  0.10621459  0.89729376  0.61768636    -0.37400
N912        N  0.04127759  0.96474503  0.65023767    -0.39800
N913        N  0.02089234  0.93660987  0.54634174    -0.39600
N914        N  0.96970033  0.02641808  0.53666764    -0.37200
N915        N  0.85792442  0.97472864  0.66517455    -0.38300
N916        N  0.91925107  0.89352362  0.68791236    -0.39900
C917        C  0.57093215  0.04564538  0.72792248    -0.04900
C918        C  0.55805878  0.01211639  0.73233459     0.09300
C919        C  0.56765437  0.99337038  0.76182345    -0.02200
C920        C  0.58898186  0.00847832  0.78747566    -0.00500
C921        C  0.60784270  0.04018579  0.78117638    -0.04100
C922        C  0.59487571  0.05996103  0.75188124     0.02900
C923        C  0.52944947  0.99903609  0.70943071     0.09700
C924        C  0.55298160  0.95911156  0.76714673     0.35600
C925        C  0.60123107  0.09653040  0.74712951     0.39100
C926        C  0.53651936  0.98074643  0.67890343    -0.04500
C927        C  0.50933325  0.96706895  0.65864128     0.02700
C928        C  0.47466717  0.96985164  0.66969718    -0.04100
C929        C  0.46768566  0.99108696  0.69880338    -0.00300
C930        C  0.49494780  0.00530611  0.71853098    -0.02900
C931        C  0.57187240  0.97510859  0.66873612     0.36400
C932        C  0.43268460  0.99840897  0.70922179     0.40000
C933        C  0.51724397  0.95112322  0.62580206     0.39100
C934        C  0.48756865  0.02577423  0.74899097     0.36100
C935        C  0.55846913  0.06591278  0.69864461     0.36700
C936        C  0.58273623  0.99520680  0.82180609     0.40000
N937        N  0.52364664  0.93891355  0.59937569    -0.38100
N938        N  0.59992578  0.97016567  0.66028386    -0.39700
N939        N  0.40493752  0.00487333  0.71767520    -0.37400
N940        N  0.48176399  0.04205656  0.77329517    -0.39800
N941        N  0.54126620  0.93188482  0.77136542    -0.39600
N942        N  0.57525438  0.98447868  0.84862308    -0.37200
N943        N  0.60256009  0.12600595  0.74167951    -0.38300
N944        N  0.54836213  0.08197787  0.67541908    -0.39900
C945        C  0.66919611  0.95975828  0.95031743    -0.04900
C946        C  0.64198879  0.95605920  0.92630653     0.09300
C947        C  0.61424309  0.93374848  0.93424607    -0.02200
C948        C  0.61176494  0.91871534  0.96756370    -0.00500
C949        C  0.63732931  0.92551919  0.99272240    -0.04100
C950        C  0.66714351  0.94411966  0.98312441     0.02900
C951        C  0.64087699  0.97977839  0.89543029     0.09700
C952        C  0.58784197  0.92680202  0.90862771     0.35600
C953        C  0.69584697  0.94720801  0.00711875     0.39100
C954        C  0.65474150  0.97000266  0.86362477    -0.04500
C955        C  0.65571754  0.99379683  0.83549489     0.02700
C956        C  0.64382605  0.02916705  0.83897655    -0.04100
C957        C  0.63567938  0.03924139  0.87388485    -0.00300
C958        C  0.63069859  0.01422781  0.90006449    -0.02900
C959        C  0.66715669  0.93477803  0.85968575     0.36400
C960        C  0.63807142  0.07435204  0.88661639     0.40000
C961        C  0.66835486  0.98020387  0.80319480     0.39100
C962        C  0.61576662  0.02437638  0.93282061     0.36100
C963        C  0.69855323  0.98129668  0.94178709     0.36700
C964        C  0.58211133  0.89782471  0.97647078     0.40000
N965        N  0.67929349  0.96719868  0.77874334    -0.38100
N966        N  0.67699213  0.90667838  0.85660483    -0.39700
N967        N  0.64070459  0.10133827  0.89927396    -0.37400
N968        N  0.60353141  0.03263996  0.95863391    -0.39800
N969        N  0.56661434  0.92032070  0.88855342    -0.39600
N970        N  0.55849024  0.88107480  0.98356954    -0.37200
N971        N  0.71890144  0.94931030  0.02608717    -0.38300
N972        N  0.72175181  0.99870250  0.93486931    -0.39900
C973        C  0.71519161  0.05014281  0.73627124    -0.04900
C974        C  0.74214331  0.06644910  0.75437487     0.09300
C975        C  0.73806779  0.07286772  0.78963328    -0.02200
C976        C  0.70658613  0.06523458  0.80642647    -0.00500
C977        C  0.67653999  0.05329683  0.78752002    -0.04100
C978        C  0.68293753  0.04338106  0.75223565     0.02900
C979        C  0.77580570  0.07449204  0.73671238     0.09700
C980        C  0.76665905  0.08807766  0.80870243     0.35600
C981        C  0.65860366  0.02360881  0.73194241     0.39100
C982        C  0.78117056  0.10663337  0.71994912    -0.04500
C983        C  0.81048629  0.11173392  0.69922369     0.02700
C984        C  0.83506752  0.08507473  0.69541787    -0.04100
C985        C  0.83293832  0.05582012  0.71730861    -0.00300
C986        C  0.80284962  0.04995951  0.73694909    -0.02900
C987        C  0.75758041  0.13521153  0.72452987     0.36400
C988        C  0.86200493  0.03261864  0.72080663     0.40000
C989        C  0.81638358  0.14522120  0.68307428     0.39100
C990        C  0.79959545  0.01867136  0.75742701     0.36100
C991        C  0.72111194  0.03977083  0.70077917     0.36700
C992        C  0.70642411  0.07131648  0.84327005     0.40000
N993        N  0.82136698  0.17199119  0.67054424    -0.38100
N994        N  0.74051365  0.15954384  0.72757793    -0.39700
N995        N  0.88560133  0.01467927  0.72456861    -0.37400
N996        N  0.79689965  0.99380048  0.77393132    -0.39800
N997        N  0.78941197  0.10025934  0.82380387    -0.39600
N998        N  0.70988315  0.07643358  0.87251047    -0.37200
N999        N  0.64075265  0.00681203  0.71481738    -0.38300
N1000       N  0.72604629  0.03127700  0.67262520    -0.39900
C1001       C  0.59393111  0.13479037  0.84746599    -0.04900
C1002       C  0.61933460  0.16048645  0.84364668     0.09300
C1003       C  0.64723185  0.15420838  0.82185918    -0.02200
C1004       C  0.65076407  0.12195780  0.80558310    -0.00500
C1005       C  0.62976561  0.09278829  0.81524366    -0.04100
C1006       C  0.59827687  0.10163873  0.83236707     0.02900
C1007       C  0.61493139  0.19601913  0.85835587     0.09700
C1008       C  0.67114680  0.18210091  0.81394991     0.35600
C1009       C  0.57038286  0.07711866  0.83625181     0.39100
C1010       C  0.63841885  0.20866310  0.88336213    -0.04500
C1011       C  0.63938632  0.24432072  0.89124290     0.02700
C1012       C  0.61526977  0.26722093  0.87585428    -0.04100
C1013       C  0.58936411  0.25359723  0.85374809    -0.00300
C1014       C  0.59032273  0.21863986  0.84371085    -0.02900
C1015       C  0.66268748  0.18522341  0.89986803     0.36400
C1016       C  0.56106891  0.27518773  0.84177736     0.40000
C1017       C  0.66648893  0.25745943  0.91360968     0.39100
C1018       C  0.56717684  0.20644125  0.81676843     0.36100
C1019       C  0.56423675  0.14183822  0.86886106     0.36700
C1020       C  0.66914276  0.12282866  0.77320516     0.40000
N1021       N  0.68825367  0.26790866  0.93128451    -0.38100
N1022       N  0.68220764  0.16685489  0.91326555    -0.39700
N1023       N  0.53828912  0.29225018  0.83253112    -0.37400
N1024       N  0.54891641  0.19666315  0.79516124    -0.39800
N1025       N  0.69015056  0.20427161  0.80765546    -0.39600
N1026       N  0.68157665  0.12425688  0.74623989    -0.37200
N1027       N  0.54665624  0.05941651  0.83987308    -0.38300
N1028       N  0.54064494  0.14745619  0.88600670    -0.39900
C1029       C  0.62066241  0.36740239  0.51054822    -0.04900
C1030       C  0.61792451  0.39349447  0.48556855     0.09300
C1031       C  0.64520689  0.41658112  0.48120295    -0.02200
C1032       C  0.67528123  0.41438868  0.50216930    -0.00500
C1033       C  0.67947097  0.38755100  0.52839721    -0.04100
C1034       C  0.64982425  0.36520281  0.53265814     0.02900
C1035       C  0.58424025  0.39966916  0.46718569     0.09700
C1036       C  0.64121705  0.44428113  0.45579168     0.35600
C1037       C  0.64827542  0.33827233  0.55874458     0.39100
C1038       C  0.55677282  0.41467215  0.48542584    -0.04500
C1039       C  0.52465103  0.41958677  0.46911505     0.02700
C1040       C  0.51916607  0.40834876  0.43470996    -0.04100
C1041       C  0.54803739  0.39853097  0.41503193    -0.00300
C1042       C  0.58017920  0.39280925  0.43154326    -0.02900
C1043       C  0.56152931  0.42485864  0.52121401     0.36400
C1044       C  0.54545217  0.39648917  0.37778231     0.40000
C1045       C  0.49792264  0.43848947  0.48697927     0.39100
C1046       C  0.60887447  0.37928868  0.41208994     0.36100
C1047       C  0.59308428  0.34203233  0.51294131     0.36700
C1048       C  0.69811318  0.44363869  0.49783447     0.40000
N1049       N  0.47689067  0.45425315  0.50092647    -0.38100
N1050       N  0.56535656  0.43277621  0.54977315    -0.39700
N1051       N  0.54377413  0.39586580  0.34794781    -0.37400
N1052       N  0.63183789  0.36848947  0.39661080    -0.39800
N1053       N  0.63798083  0.46625214  0.43561693    -0.39600
N1054       N  0.71403103  0.46839095  0.49261294    -0.37200
N1055       N  0.64393629  0.31610016  0.57841557    -0.38300
N1056       N  0.57128688  0.32169522  0.51450587    -0.39900
C1057       C  0.68630017  0.36783469  0.65320143    -0.04900
C1058       C  0.66426749  0.39563909  0.65973284     0.09300
C1059       C  0.65686261  0.41905970  0.63290909    -0.02200
C1060       C  0.67310376  0.41594151  0.60025132    -0.00500
C1061       C  0.69533639  0.38699597  0.59215127    -0.04100
C1062       C  0.69837989  0.36128219  0.61951098     0.02900
C1063       C  0.64863363  0.39913279  0.69511349     0.09700
C1064       C  0.63280082  0.44701313  0.63931028     0.35600
C1065       C  0.70809103  0.32551612  0.61435897     0.39100
C1066       C  0.66134073  0.42402145  0.71844309    -0.04500
C1067       C  0.65224595  0.42259229  0.75364093     0.02700
C1068       C  0.63081545  0.39552884  0.76624597    -0.04100
C1069       C  0.61595564  0.37228802  0.74234115    -0.00300
C1070       C  0.62449538  0.37431881  0.70688620    -0.02900
C1071       C  0.68483279  0.45072310  0.70657516     0.36400
C1072       C  0.59349751  0.34480747  0.75432823     0.40000
C1073       C  0.66516554  0.44907959  0.77682225     0.39100
C1074       C  0.60963942  0.35005486  0.68256047     0.36100
C1075       C  0.69537711  0.34447269  0.68153392     0.36700
C1076       C  0.66755267  0.44448631  0.57640522     0.40000
N1077       N  0.67560541  0.47022881  0.79536634    -0.38100
N1078       N  0.70326759  0.47231374  0.69753974    -0.39700
N1079       N  0.57571158  0.32284315  0.76373872    -0.37400
N1080       N  0.59790303  0.33066530  0.66292593    -0.39800
N1081       N  0.61361556  0.46934412  0.64442370    -0.39600
N1082       N  0.66200147  0.46849476  0.55933088    -0.37200
N1083       N  0.71420094  0.29623737  0.61245212    -0.38300
N1084       N  0.70241657  0.32592326  0.70399297    -0.39900
C1085       C  0.81678875  0.24304688  0.53672876    -0.04900
C1086       C  0.78419651  0.24594297  0.55221642     0.09300
C1087       C  0.77100242  0.21751563  0.57113574    -0.02200
C1088       C  0.79171260  0.18788842  0.57730343    -0.00500
C1089       C  0.82589641  0.18700889  0.56524405    -0.04100
C1090       C  0.83763238  0.21392620  0.54341635     0.02900
C1091       C  0.76597058  0.28037147  0.55127436     0.09700
C1092       C  0.73650316  0.21894898  0.58497071     0.35600
C1093       C  0.87136621  0.21172725  0.52771251     0.39100
C1094       C  0.73784512  0.28629306  0.52919785    -0.04500
C1095       C  0.72216807  0.31951123  0.52695422     0.02700
C1096       C  0.73213613  0.34732112  0.55009914    -0.04100
C1097       C  0.76319650  0.34094769  0.56999173    -0.00300
C1098       C  0.77930501  0.30806024  0.57054027    -0.02900
C1099       C  0.72579726  0.25799898  0.50757406     0.36400
C1100       C  0.77813560  0.36641341  0.59310031     0.40000
C1101       C  0.69926356  0.32423318  0.49757522     0.39100
C1102       C  0.80915769  0.30204357  0.59269588     0.36100
C1103       C  0.82930010  0.27080590  0.51482296     0.36700
C1104       C  0.77829483  0.15898327  0.59700342     0.40000
N1105       N  0.68192775  0.32671446  0.47322084    -0.38100
N1106       N  0.71619191  0.23542577  0.49045541    -0.39700
N1107       N  0.79232154  0.38443457  0.61230648    -0.37400
N1108       N  0.83290801  0.29739780  0.61031291    -0.39800
N1109       N  0.70889102  0.21950892  0.59589242    -0.39600
N1110       N  0.76744934  0.13578562  0.61250523    -0.37200
N1111       N  0.89821739  0.20997308  0.51516284    -0.38300
N1112       N  0.83913808  0.29311176  0.49746740    -0.39900
C1113       C  0.99592114  0.40063988  0.89512947    -0.04900
C1114       C  0.03159817  0.39581247  0.89380458     0.09300
C1115       C  0.04446974  0.36228017  0.88968932    -0.02200
C1116       C  0.02196008  0.33373407  0.88431443    -0.00500
C1117       C  0.98486853  0.33784008  0.88242656    -0.04100
C1118       C  0.97276775  0.37248010  0.89081146     0.02900
C1119       C  0.05530002  0.42680963  0.89474706     0.09700
C1120       C  0.08156597  0.35742762  0.88970834     0.35600
C1121       C  0.93740179  0.38087967  0.89903513     0.39100
C1122       C  0.07426049  0.43565101  0.92485095    -0.04500
C1123       C  0.09296427  0.46721197  0.92635719     0.02700
C1124       C  0.09115802  0.49090877  0.89857957    -0.04100
C1125       C  0.07416873  0.48083269  0.86773942    -0.00300
C1126       C  0.05681745  0.44885882  0.86569132    -0.02900
C1127       C  0.07295247  0.41324126  0.95487936     0.36400
C1128       C  0.07325737  0.50407106  0.83824041     0.40000
C1129       C  0.11303576  0.47581064  0.95680931     0.39100
C1130       C  0.03891740  0.43947806  0.83404607     0.36100
C1131       C  0.98299309  0.43531195  0.90221534     0.36700
C1132       C  0.03882851  0.30083944  0.87835398     0.40000
N1133       N  0.12939820  0.48248286  0.98098260    -0.38100
N1134       N  0.07180506  0.39540584  0.97891323    -0.39700
N1135       N  0.07198930  0.52241175  0.81459768    -0.37400
N1136       N  0.02455880  0.43238818  0.80875651    -0.39800
N1137       N  0.11110843  0.35368354  0.88985619    -0.39600
N1138       N  0.05512616  0.27624675  0.87365567    -0.37200
N1139       N  0.90991650  0.38940440  0.90660434    -0.38300
N1140       N  0.97275863  0.46283681  0.90792468    -0.39900
C1141       C  0.80044790  0.36428599  0.90498213    -0.04900
C1142       C  0.81103806  0.34398526  0.87667051     0.09300
C1143       C  0.78687928  0.33543119  0.85054291    -0.02200
C1144       C  0.75285650  0.34815911  0.85220082    -0.00500
C1145       C  0.74205533  0.36698089  0.88133332    -0.04100
C1146       C  0.76576084  0.37424057  0.90811136     0.02900
C1147       C  0.84760620  0.33138087  0.87506284     0.09700
C1148       C  0.79666556  0.31257740  0.82265591     0.35600
C1149       C  0.75425461  0.39029927  0.93979506     0.39100
C1150       C  0.85991212  0.30751002  0.89953298    -0.04500
C1151       C  0.89538251  0.29899280  0.90171223     0.02700
C1152       C  0.92006872  0.31371228  0.87781363    -0.04100
C1153       C  0.90546782  0.33567919  0.85101227    -0.00300
C1154       C  0.87021548  0.34485517  0.85052300    -0.02900
C1155       C  0.83520864  0.29100238  0.92242126     0.36400
C1156       C  0.92659819  0.35286975  0.82538823     0.40000
C1157       C  0.90364994  0.27308833  0.92768913     0.39100
C1158       C  0.85728203  0.36994008  0.82548291     0.36100
C1159       C  0.82518300  0.37454659  0.93128477     0.36700
C1160       C  0.72884579  0.34181624  0.82405073     0.40000
N1161       N  0.90801579  0.25191446  0.94852947    -0.38100
N1162       N  0.81553612  0.27786893  0.94052348    -0.39700
N1163       N  0.94135627  0.36832743  0.80457327    -0.37400
N1164       N  0.84692851  0.38989752  0.80561288    -0.39800
N1165       N  0.80436647  0.29413793  0.80052094    -0.39600
N1166       N  0.70973357  0.33718379  0.80146657    -0.37200
N1167       N  0.74545173  0.40262242  0.96545094    -0.38300
N1168       N  0.84479839  0.38273685  0.95235390    -0.39900
C1169       C  0.93785044  0.24445969  0.79633771    -0.04900
C1170       C  0.95924020  0.25644247  0.77006543     0.09300
C1171       C  0.98183577  0.28384929  0.77683820    -0.02200
C1172       C  0.98347586  0.29958144  0.81004696    -0.00500
C1173       C  0.96267194  0.28712069  0.83846967    -0.04100
C1174       C  0.93967211  0.25870529  0.82987901     0.02900
C1175       C  0.95857439  0.23839360  0.73568667     0.09700
C1176       C  0.00290058  0.29656699  0.74864242     0.35600
C1177       C  0.91986872  0.24021898  0.85564640     0.39100
C1178       C  0.93248512  0.24595880  0.71115546    -0.04500
C1179       C  0.92697961  0.22377462  0.68261899     0.02700
C1180       C  0.94700661  0.19353710  0.67901773    -0.04100
C1181       C  0.97438087  0.18716830  0.70240190    -0.00300
C1182       C  0.98064809  0.20997528  0.73010792    -0.02900
C1183       C  0.91039510  0.27571280  0.71626106     0.36400
C1184       C  0.99528687  0.15625509  0.69877460     0.40000
C1185       C  0.89934752  0.23076768  0.65824339     0.39100
C1186       C  0.00926390  0.20356323  0.75348783     0.36100
C1187       C  0.91428969  0.21605344  0.78883187     0.36700
C1188       C  0.00551416  0.32969069  0.81199002     0.40000
N1189       N  0.87732051  0.23618842  0.63869532    -0.38100
N1190       N  0.89278638  0.29947190  0.72047105    -0.39700
N1191       N  0.01174273  0.13144297  0.69607742    -0.37400
N1192       N  0.03250893  0.19839586  0.77162725    -0.39800
N1193       N  0.01950872  0.30674731  0.72611263    -0.39600
N1194       N  0.02334169  0.35367982  0.81097635    -0.37200
N1195       N  0.90410868  0.22265870  0.87392031    -0.38300
N1196       N  0.89562090  0.19349347  0.78275475    -0.39900
C1197       C  0.85651697  0.64719362  0.22312128    -0.04900
C1198       C  0.84900067  0.61569066  0.20626223     0.09300
C1199       C  0.85281127  0.58412629  0.22432512    -0.02200
C1200       C  0.86383394  0.58407427  0.25914551    -0.00500
C1201       C  0.87042766  0.61564906  0.27635330    -0.04100
C1202       C  0.86659721  0.64722996  0.25820483     0.02900
C1203       C  0.83672160  0.61604040  0.16942033     0.09700
C1204       C  0.84491612  0.55176838  0.20710423     0.35600
C1205       C  0.87091440  0.67994964  0.27590133     0.39100
C1206       C  0.85963594  0.60910545  0.14272324    -0.04500
C1207       C  0.84977501  0.61420177  0.10777604     0.02700
C1208       C  0.81449424  0.62201936  0.09794569    -0.04100
C1209       C  0.79154582  0.62811859  0.12664592    -0.00300
C1210       C  0.80295293  0.62582932  0.16140306    -0.02900
C1211       C  0.89478737  0.59923202  0.15166245     0.36400
C1212       C  0.75514354  0.63513555  0.12210114     0.40000
C1213       C  0.87859052  0.61782950  0.08478193     0.39100
C1214       C  0.77956760  0.63328503  0.18958878     0.36100
C1215       C  0.85340551  0.67964920  0.20432314     0.36700
C1216       C  0.86860110  0.55147018  0.27727077     0.40000
N1217       N  0.90285585  0.62292412  0.06848958    -0.38100
N1218       N  0.92271870  0.59142394  0.15874799    -0.39700
N1219       N  0.72581052  0.64029438  0.12185994    -0.37400
N1220       N  0.76113756  0.63934764  0.21209997    -0.39800
N1221       N  0.83857224  0.52601496  0.19324882    -0.39600
N1222       N  0.87251579  0.52548714  0.29175474    -0.37200
N1223       N  0.87356717  0.70653433  0.28933039    -0.38300
N1224       N  0.85085395  0.70544896  0.18922135    -0.39900
C1225       C  0.64393612  0.66628852  0.36112066    -0.04900
C1226       C  0.66496457  0.67351218  0.38959858     0.09300
C1227       C  0.65214648  0.69376135  0.41654703    -0.02200
C1228       C  0.61826744  0.70754396  0.41517755    -0.00500
C1229       C  0.59483715  0.69883805  0.38723075    -0.04100
C1230       C  0.60953932  0.67814927  0.35976577     0.02900
C1231       C  0.70175736  0.66170846  0.38991198     0.09700
C1232       C  0.67465647  0.70089200  0.44585877     0.35600
C1233       C  0.58913749  0.66513950  0.33104177     0.39100
C1234       C  0.72735475  0.68352425  0.37625583    -0.04500
C1235       C  0.76206679  0.67294277  0.37646315     0.02700
C1236       C  0.77168530  0.64038040  0.39070583    -0.04100
C1237       C  0.74555097  0.61749979  0.40193672    -0.00300
C1238       C  0.71087889  0.62852349  0.40237114    -0.02900
C1239       C  0.71786575  0.71714187  0.36224357     0.36400
C1240       C  0.75393673  0.58263948  0.41322574     0.40000
C1241       C  0.78766111  0.69528055  0.36074291     0.39100
C1242       C  0.68481416  0.60585816  0.41656336     0.36100
C1243       C  0.65768895  0.64512879  0.33342874     0.36700
C1244       C  0.61067723  0.73253405  0.44186470     0.40000
N1245       N  0.80792433  0.71306988  0.34801688    -0.38100
N1246       N  0.71020285  0.74394756  0.35114371    -0.39700
N1247       N  0.76018439  0.55459516  0.42188250    -0.37400
N1248       N  0.66477048  0.58719739  0.42835204    -0.39800
N1249       N  0.69260084  0.70642611  0.46917611    -0.39600
N1250       N  0.60686798  0.75279094  0.46349513    -0.37200
N1251       N  0.57484943  0.65302831  0.30769627    -0.38300
N1252       N  0.66863540  0.62810719  0.31156498    -0.39900
C1253       C  0.91614524  0.78940346  0.33372140    -0.04900
C1254       C  0.89549595  0.81408409  0.35040028     0.09300
C1255       C  0.87401136  0.80380381  0.37784442    -0.02200
C1256       C  0.87242948  0.76870584  0.38786273    -0.00500
C1257       C  0.89355965  0.74394523  0.37149096    -0.04100
C1258       C  0.91646744  0.75492285  0.34522975     0.02900
C1259       C  0.89442944  0.85029764  0.33683520     0.09700
C1260       C  0.85243506  0.82911647  0.39484052     0.35600
C1261       C  0.94110670  0.73119751  0.33014528     0.39100
C1262       C  0.86581415  0.86125662  0.31765052    -0.04500
C1263       C  0.86555652  0.89411666  0.30179538     0.02700
C1264       C  0.89176108  0.91959473  0.30971478    -0.04100
C1265       C  0.92269180  0.90575913  0.32529609    -0.00300
C1266       C  0.92345843  0.87180605  0.33921161    -0.02900
C1267       C  0.83727846  0.83735825  0.31214655     0.36400
C1268       C  0.95409798  0.92557614  0.32898397     0.40000
C1269       C  0.84234572  0.89673069  0.27239026     0.39100
C1270       C  0.95377288  0.85939086  0.35774529     0.36100
C1271       C  0.93613434  0.79924545  0.30368016     0.36700
C1272       C  0.84784427  0.75809397  0.41384541     0.40000
N1273       N  0.82446889  0.89601102  0.24837075    -0.38100
N1274       N  0.81464405  0.81832816  0.30789289    -0.39700
N1275       N  0.98073179  0.93849022  0.33271901    -0.37400
N1276       N  0.97789778  0.84943038  0.37239803    -0.39800
N1277       N  0.83487203  0.84904886  0.40832839    -0.39600
N1278       N  0.82804684  0.74966978  0.43439785    -0.37200
N1279       N  0.96081359  0.71253063  0.31789947    -0.38300
N1280       N  0.95189096  0.80713866  0.27967747    -0.39900
C1281       C  0.96213160  0.72714310  0.51599635    -0.04900
C1282       C  0.99838484  0.72699103  0.51643653     0.09300
C1283       C  0.01626838  0.70645953  0.49237528    -0.02200
C1284       C  0.99795515  0.68491272  0.46906578    -0.00500
C1285       C  0.96160172  0.68386426  0.46964283    -0.04100
C1286       C  0.94380367  0.70572626  0.49287624     0.02900
C1287       C  0.01717435  0.74555030  0.54499157     0.09700
C1288       C  0.05350614  0.70760376  0.49172301     0.35600
C1289       C  0.90647274  0.70709853  0.49255631     0.39100
C1290       C  0.02149457  0.72896051  0.57689141    -0.04500
C1291       C  0.03289171  0.74749423  0.60635263     0.02700
C1292       C  0.04558160  0.78272797  0.60367232    -0.04100
C1293       C  0.04213234  0.79828487  0.56968977    -0.00300
C1294       C  0.02674895  0.78033581  0.54164949    -0.02900
C1295       C  0.01138039  0.69273274  0.57982407     0.36400
C1296       C  0.05542525  0.83257946  0.56203088     0.40000
C1297       C  0.02597160  0.73009951  0.63867266     0.39100
C1298       C  0.02002201  0.79797229  0.50910911     0.36100
C1299       C  0.94366554  0.74954585  0.53952085     0.36700
C1300       C  0.01653300  0.66290986  0.44537007     0.40000
N1301       N  0.01898777  0.71491326  0.66343113    -0.38100
N1302       N  0.00318403  0.66400263  0.58201983    -0.39700
N1303       N  0.06596500  0.85940096  0.55392255    -0.37400
N1304       N  0.01428807  0.81211611  0.48330917    -0.39800
N1305       N  0.08324945  0.70878644  0.49105718    -0.39600
N1306       N  0.03129012  0.64521025  0.42652104    -0.37200
N1307       N  0.87671006  0.70829558  0.49245284    -0.38300
N1308       N  0.92901610  0.76757244  0.55814516    -0.39900
C1309       C  0.04698103  0.46938840  0.27395889    -0.04900
C1310       C  0.05366108  0.50031834  0.29196275     0.09300
C1311       C  0.08684235  0.51447434  0.28996224    -0.02200
C1312       C  0.11040072  0.50259653  0.26486215    -0.00500
C1313       C  0.10399951  0.47148851  0.24491683    -0.04100
C1314       C  0.07307178  0.45305677  0.25431683     0.02900
C1315       C  0.02570686  0.51895038  0.31177587     0.09700
C1316       C  0.09630612  0.54250602  0.31318867     0.35600
C1317       C  0.06789244  0.41651933  0.24802280     0.39100
C1318       C  0.00914557  0.50309686  0.34026418    -0.04500
C1319       C  0.98164702  0.52002141  0.35721959     0.02700
C1320       C  0.97238694  0.55414230  0.34799417    -0.04100
C1321       C  0.99041745  0.57082984  0.32097440    -0.00300
C1322       C  0.01600929  0.55311622  0.30240139    -0.02900
C1323       C  0.02151035  0.47009305  0.35321102     0.36400
C1324       C  0.98291156  0.60654748  0.31184365     0.40000
C1325       C  0.96345055  0.50251714  0.38468335     0.39100
C1326       C  0.03281488  0.57102153  0.27408653     0.36100
C1327       C  0.01264187  0.45454554  0.27476127     0.36700
C1328       C  0.14011894  0.52464469  0.25976656     0.40000
N1329       N  0.94888868  0.48814669  0.40632942    -0.38100
N1330       N  0.03161382  0.44381569  0.36361559    -0.39700
N1331       N  0.97795625  0.63510344  0.30404960    -0.37400
N1332       N  0.04612173  0.58633796  0.25222052    -0.39800
N1333       N  0.10376610  0.56487209  0.33162606    -0.39600
N1334       N  0.16288499  0.54386805  0.25812801    -0.37200
N1335       N  0.06273715  0.38718104  0.24463485    -0.38300
N1336       N  0.98527258  0.44280170  0.27533952    -0.39900
C1337       C  0.84583831  0.49391094  0.50632995    -0.04900
C1338       C  0.81036662  0.49712750  0.51375071     0.09300
C1339       C  0.79407897  0.52931711  0.50736512    -0.02200
C1340       C  0.81215415  0.55667999  0.49129632    -0.00500
C1341       C  0.84594535  0.55131812  0.47866280    -0.04100
C1342       C  0.86329374  0.52052221  0.48823824     0.02900
C1343       C  0.78975660  0.46638582  0.52664356     0.09700
C1344       C  0.75825586  0.53431264  0.51645564     0.35600
C1345       C  0.89965911  0.51696881  0.48106679     0.39100
C1346       C  0.77478203  0.46645414  0.55951318    -0.04500
C1347       C  0.75184547  0.43971531  0.56996929     0.02700
C1348       C  0.74149634  0.41231979  0.54656614    -0.04100
C1349       C  0.76112147  0.41076865  0.51493722    -0.00300
C1350       C  0.78420059  0.43758861  0.50524945    -0.02900
C1351       C  0.78393262  0.49418040  0.58320137     0.36400
C1352       C  0.75619295  0.38369238  0.48955129     0.40000
C1353       C  0.74316453  0.44001589  0.60625250     0.39100
C1354       C  0.80053346  0.43677445  0.47156391     0.36100
C1355       C  0.86432286  0.46317725  0.51739068     0.36700
C1356       C  0.79542341  0.59009923  0.48756919     0.40000
N1357       N  0.73811771  0.44101771  0.63564068    -0.38100
N1358       N  0.79114905  0.51634551  0.60195364    -0.39700
N1359       N  0.75454600  0.36353227  0.46755546    -0.37400
N1360       N  0.81357631  0.43609573  0.44481802    -0.39800
N1361       N  0.72982120  0.53879013  0.52382366    -0.39600
N1362       N  0.78207561  0.61682545  0.48507299    -0.37200
N1363       N  0.92881121  0.51444693  0.47592876    -0.38300
N1364       N  0.87909918  0.43867275  0.52636797    -0.39900
C1365       C  0.12565798  0.30747519  0.13005980    -0.04900
C1366       C  0.10368839  0.31780150  0.15698087     0.09300
C1367       C  0.08137999  0.29338771  0.17189243    -0.02200
C1368       C  0.08276467  0.25831774  0.16172803    -0.00500
C1369       C  0.10782594  0.24693179  0.13764963    -0.04100
C1370       C  0.12819254  0.27223270  0.12073194     0.02900
C1371       C  0.10841552  0.35287812  0.17299168     0.09700
C1372       C  0.05760602  0.30421226  0.19844366     0.35600
C1373       C  0.15304733  0.26235193  0.09484089     0.39100
C1374       C  0.08668098  0.38070784  0.16493048    -0.04500
C1375       C  0.09316886  0.41425541  0.17858354     0.02700
C1376       C  0.12310423  0.42140592  0.19998411    -0.04100
C1377       C  0.14679197  0.39244500  0.20361653    -0.00300
C1378       C  0.13741741  0.35859361  0.19368609    -0.02900
C1379       C  0.05709418  0.37448080  0.14264790     0.36400
C1380       C  0.18330667  0.39579361  0.21057914     0.40000
C1381       C  0.06766054  0.44039388  0.17021030     0.39100
C1382       C  0.15950861  0.32925593  0.20249430     0.36100
C1383       C  0.14673021  0.33325403  0.11291278     0.36700
C1384       C  0.05763041  0.23433117  0.17564248     0.40000
N1385       N  0.04592718  0.45923036  0.16194197    -0.38100
N1386       N  0.03348849  0.36947402  0.12496846    -0.39700
N1387       N  0.21281818  0.39626442  0.21464555    -0.37400
N1388       N  0.17708419  0.30595232  0.20921662    -0.39800
N1389       N  0.03850106  0.31267273  0.21957089    -0.39600
N1390       N  0.03742750  0.21528582  0.18658083    -0.37200
N1391       N  0.17320711  0.25487032  0.07433842    -0.38300
N1392       N  0.16339770  0.35394656  0.09928555    -0.39900
C1393       C  0.17384482  0.15281904  0.28383520    -0.04900
C1394       C  0.16411091  0.12683567  0.30757794     0.09300
C1395       C  0.13996465  0.10132439  0.29747114    -0.02200
C1396       C  0.12632302  0.10134949  0.26360770    -0.00500
C1397       C  0.13635148  0.12716678  0.23993693    -0.04100
C1398       C  0.15924672  0.15347506  0.25048352     0.02900
C1399       C  0.17761684  0.12765785  0.34393703     0.09700
C1400       C  0.12986492  0.07447601  0.32161133     0.35600
C1401       C  0.16724816  0.18161767  0.22702431     0.39100
C1402       C  0.16629717  0.15342284  0.36639453    -0.04500
C1403       C  0.17738302  0.15392865  0.40116329     0.02700
C1404       C  0.19973340  0.12728715  0.41542432    -0.04100
C1405       C  0.21180857  0.10173129  0.39096886    -0.00300
C1406       C  0.20095423  0.10258725  0.35587047    -0.02900
C1407       C  0.14159754  0.17896914  0.35375743     0.36400
C1408       C  0.23715020  0.07532445  0.39909161     0.40000
C1409       C  0.16148777  0.18035183  0.42232992     0.39100
C1410       C  0.21471008  0.07799964  0.33113007     0.36100
C1411       C  0.19950158  0.17841133  0.29345717     0.36700
C1412       C  0.10303994  0.07407090  0.25273749     0.40000
N1413       N  0.14666423  0.20176463  0.43683424    -0.38100
N1414       N  0.12200122  0.19921355  0.34359045    -0.39700
N1415       N  0.25768474  0.05395993  0.40338361    -0.37400
N1416       N  0.22573357  0.05859667  0.31137155    -0.39800
N1417       N  0.12204590  0.05275811  0.34065526    -0.39600
N1418       N  0.08453504  0.05220617  0.24416942    -0.37200
N1419       N  0.17304620  0.20437966  0.20849083    -0.38300
N1420       N  0.22001973  0.19879554  0.30102714    -0.39900
C1421       C  0.30334240  0.13454293  0.12329300    -0.04900
C1422       C  0.31284931  0.16953378  0.12778143     0.09300
C1423       C  0.28713117  0.19451555  0.13342731    -0.02200
C1424       C  0.25206095  0.18494086  0.13330170    -0.00500
C1425       C  0.24206764  0.14995786  0.12736795    -0.04100
C1426       C  0.26834058  0.12463386  0.12369315     0.02900
C1427       C  0.35017930  0.17983189  0.12867020     0.09700
C1428       C  0.29692325  0.23026645  0.13970025     0.35600
C1429       C  0.25992597  0.08820325  0.11992752     0.39100
C1430       C  0.36487716  0.19853418  0.10137399    -0.04500
C1431       C  0.39966313  0.20988261  0.10303348     0.02700
C1432       C  0.42230985  0.19891314  0.13086075    -0.04100
C1433       C  0.40614539  0.17815411  0.15753352    -0.00300
C1434       C  0.37052722  0.17115012  0.15728511    -0.02900
C1435       C  0.34339944  0.20694640  0.07158768     0.36400
C1436       C  0.42569425  0.15997896  0.18403905     0.40000
C1437       C  0.40922887  0.23464738  0.07666260     0.39100
C1438       C  0.35454451  0.15429682  0.18676813     0.36100
C1439       C  0.32968348  0.10851824  0.11797128     0.36700
C1440       C  0.22672521  0.21141446  0.14065991     0.40000
N1441       N  0.41463549  0.25491285  0.05527185    -0.38100
N1442       N  0.32620167  0.21364774  0.04797176    -0.39700
N1443       N  0.43899780  0.14331285  0.20514658    -0.37400
N1444       N  0.34176301  0.14103791  0.21023992    -0.39800
N1445       N  0.30478663  0.25875856  0.14455016    -0.39600
N1446       N  0.20717891  0.23309692  0.14675764    -0.37200
N1447       N  0.25347801  0.05907618  0.11709557    -0.38300
N1448       N  0.35032664  0.08737760  0.11382985    -0.39900
C1449       C  0.02775797  0.99462388  0.19397062    -0.04900
C1450       C  0.99533662  0.00912507  0.20166365     0.09300
C1451       C  0.98679340  0.04197008  0.18806301    -0.02200
C1452       C  0.01119243  0.06137455  0.16938762    -0.00500
C1453       C  0.04463476  0.04777664  0.16294790    -0.04100
C1454       C  0.05205289  0.01353736  0.17429113     0.02900
C1455       C  0.97213034  0.99287228  0.22825592     0.09700
C1456       C  0.95348549  0.05716901  0.19554936     0.35600
C1457       C  0.08495454  0.99781121  0.16651923     0.39100
C1458       C  0.96973962  0.00808881  0.26092115    -0.04500
C1459       C  0.94610914  0.99559875  0.28556031     0.02700
C1460       C  0.92085765  0.96933718  0.27687131    -0.04100
C1461       C  0.92893552  0.95003016  0.24604887    -0.00300
C1462       C  0.95308724  0.96269992  0.22158339    -0.02900
C1463       C  0.99289943  0.03644400  0.26970944     0.36400
C1464       C  0.91337402  0.91690491  0.23818833     0.40000
C1465       C  0.95339163  0.00658447  0.32060994     0.39100
C1466       C  0.95694347  0.94567402  0.18845853     0.36100
C1467       C  0.03683801  0.96090928  0.20791356     0.36700
C1468       C  0.00212458  0.09661712  0.15971366     0.40000
N1469       N  0.96111781  0.01522680  0.34816322    -0.38100
N1470       N  0.01118791  0.05900249  0.27683160    -0.39700
N1471       N  0.90347073  0.88977762  0.23027686    -0.37400
N1472       N  0.95990989  0.93211335  0.16204462    -0.39800
N1473       N  0.92731356  0.06998401  0.20163179    -0.39600
N1474       N  0.99464611  0.12475763  0.15254440    -0.37200
N1475       N  0.11121619  0.98518459  0.16040779    -0.38300
N1476       N  0.04396920  0.93397138  0.21901801    -0.39900
C1477       C  0.98684202  0.26900022  0.96900122    -0.04900
C1478       C  0.99751378  0.23511844  0.96255220     0.09300
C1479       C  0.99602742  0.22218399  0.92894083    -0.02200
C1480       C  0.98671615  0.24388450  0.90090608    -0.00500
C1481       C  0.97279284  0.27831049  0.90647275    -0.04100
C1482       C  0.97384627  0.29011240  0.94196137     0.02900
C1483       C  0.01598605  0.21486099  0.98994814     0.09700
C1484       C  0.00648958  0.18647726  0.92307139     0.35600
C1485       C  0.95956787  0.32300690  0.95271297     0.39100
C1486       C  0.99830153  0.19170456  0.01176260    -0.04500
C1487       C  0.01674808  0.17141811  0.03608545     0.02700
C1488       C  0.05289313  0.17450511  0.03879190    -0.04100
C1489       C  0.07040305  0.19801274  0.01690486    -0.00300
C1490       C  0.05196741  0.21819542  0.99282988    -0.02900
C1491       C  0.96115442  0.18921328  0.00942684     0.36400
C1492       C  0.10742118  0.20243604  0.01964226     0.40000
C1493       C  0.99871888  0.14647976  0.05731947     0.39100
C1494       C  0.06993888  0.24311815  0.97133771     0.36100
C1495       C  0.98908504  0.28204308  0.00414898     0.36700
C1496       C  0.99684526  0.23060822  0.86751504     0.40000
N1497       N  0.98420528  0.12630713  0.07387719    -0.38100
N1498       N  0.93146843  0.18742375  0.00774034    -0.39700
N1499       N  0.13694201  0.20595383  0.02151477    -0.37400
N1500       N  0.08410514  0.26319605  0.95435491    -0.39800
N1501       N  0.01473014  0.15806936  0.91850996    -0.39600
N1502       N  0.00622165  0.21892612  0.84176303    -0.37200
N1503       N  0.94830711  0.34800803  0.96453365    -0.38300
N1504       N  0.99091914  0.29233485  0.03213302    -0.39900
C1505       C  0.17587555  0.99405132  0.01810177    -0.04900
C1506       C  0.21088884  0.99821859  0.00936284     0.09300
C1507       C  0.22704925  0.03032308  0.01615546    -0.02200
C1508       C  0.20899544  0.05719421  0.03289335    -0.00500
C1509       C  0.17515931  0.05152710  0.04532718    -0.04100
C1510       C  0.15858109  0.01984925  0.03720888     0.02900
C1511       C  0.23122451  0.96832411  0.99463965     0.09700
C1512       C  0.26272548  0.03568295  0.00663873     0.35600
C1513       C  0.12364225  0.01350306  0.04856780     0.39100
C1514       C  0.24424241  0.96979408  0.96100625    -0.04500
C1515       C  0.26658413  0.94361856  0.94840430     0.02700
C1516       C  0.27788569  0.91503500  0.97014263    -0.04100
C1517       C  0.25982479  0.91202217  0.00258788    -0.00300
C1518       C  0.23786996  0.93868360  0.01470108    -0.02900
C1519       C  0.23348427  0.99831185  0.93876785     0.36400
C1520       C  0.26526391  0.88334524  0.02623395     0.40000
C1521       C  0.27363089  0.94595007  0.91180642     0.39100
C1522       C  0.22386496  0.93671961  0.04940558     0.36100
C1523       C  0.15767701  0.96311609  0.00727451     0.36700
C1524       C  0.22609046  0.09016813  0.03822423     0.40000
N1525       N  0.27739529  0.94872251  0.88232451    -0.38100
N1526       N  0.22488091  0.02101252  0.92111071    -0.39700
N1527       N  0.26742411  0.86174123  0.04692997    -0.37400
N1528       N  0.21272369  0.93516774  0.07697809    -0.39800
N1529       N  0.29104898  0.04036609  0.99895995    -0.39600
N1530       N  0.23981277  0.11653300  0.04199365    -0.37200
N1531       N  0.09593244  0.00824062  0.05790186    -0.38300
N1532       N  0.14321114  0.93845650  0.99836664    -0.39900
loop_ 
_geom_bond_atom_site_label_1 
_geom_bond_atom_site_label_2 
_geom_bond_distance 
_geom_bond_site_symmetry_2 
_ccdc_geom_bond_type 
O1          Cr19   2.022       .  S
O1            C9   1.268       .  A
O2          Cr19   1.968       .  S
O2            C3   1.257       .  A
C3            O4   1.272       .  A
C3         C1453   1.511       .  S
O4          Cr20   2.042       .  S
O5          Cr20   1.976       .  S
O5            C6   1.263       .  A
C6            O7   1.271       .  A
C6         C1509   1.503       .  S
O7          Cr21   2.027       .  S
O8          Cr21   1.967       .  S
O8            C9   1.258       .  A
C9         C1488   1.485       .  S
O10         Cr19   1.969       .  S
O10          C18   1.259       .  A
O11         Cr19   2.031       .  S
O11          C12   1.269       .  A
C12          O13   1.254       .  A
C12        C1397   1.475       .  S
O13         Cr20   1.952       .  S
O14         Cr20   2.025       .  S
O14          C15   1.271       .  A
C15          O16   1.259       .  A
C15        C1425   1.507       .  S
O16         Cr21   1.970       .  S
O17         Cr21   2.033       .  S
O17          C18   1.270       .  A
C18        C1369   1.503       .  S
Cr19         O22   1.765       .  S
Cr20         O22   1.766       .  S
Cr21         O22   1.763       .  S
O23         Cr41   2.036       .  S
O23          C31   1.272       .  A
O24         Cr41   1.963       .  S
O24          C25   1.258       .  A
C25          O26   1.275       .  A
C25        C1320   1.495       .  S
O26         Cr42   2.045       .  S
O27         Cr42   1.990       .  S
O27          C28   1.265       .  A
C28          O29   1.267       .  A
C28        C1341   1.505       .  S
O29         Cr43   2.014       .  S
O30         Cr43   1.969       .  S
O30          C31   1.261       .  A
C31        C1285   1.494       .  S
O32         Cr41   1.952       .  S
O32          C40   1.251       .  A
O33         Cr41   2.020       .  S
O33          C34   1.265       .  A
C34          O35   1.256       .  A
C34        C1201   1.485       .  S
O35         Cr42   1.971       .  S
O36         Cr42   2.031       .  S
O36          C37   1.273       .  A
C37          O38   1.259       .  A
C37        C1236   1.495       .  S
O38         Cr43   1.959       .  S
O39         Cr43   2.022       .  S
O39          C40   1.264       .  A
C40        C1257   1.486       .  S
Cr41         O44   1.764       .  S
Cr42         O44   1.774       .  S
Cr43         O44   1.770       .  S
C45        C1117   1.623       .  S
C45        C1152   1.609       .  S
C45        C1173   1.616       .  S
C45        C1481   1.608       .  S
C46        C1033   1.617       .  S
C46        C1061   1.619       .  S
C46        C1096   1.611       .  S
C46        C1348   1.618       .  S
C47         C921   1.624       .  S
C47         C956   1.612       .  S
C47         C977   1.614       .  S
C47        C1005   1.600       .  S
O48         Cr66   1.959       .  S
O48          C56   1.256       .  A
O49         Cr66   2.033       .  S
O49          C50   1.269       .  A
C50          O51   1.257       .  A
C50         C865   1.491   1_655  S
O51         Cr67   1.966       .  S
O52         Cr67   2.030       .  S
O52          C53   1.271       .  A
C53          O54   1.259       .  A
C53         C837   1.486       .  S
O54         Cr68   1.963       .  S
O55         Cr68   2.039       .  S
O55          C56   1.271       .  A
C56         C893   1.488   1_545  S
O57         Cr66   2.038       .  S
O57          C65   1.271       .  A
O58         Cr66   1.963       .  S
O58          C59   1.258       .  A
C59          O60   1.270       .  A
C59        C1180   1.484       .  S
O60         Cr67   2.029       .  S
O61         Cr67   1.961       .  S
O61          C62   1.256       .  A
C62          O63   1.268       .  A
C62        C1089   1.489       .  S
O63         Cr68   2.031       .  S
O64         Cr68   1.964       .  S
O64          C65   1.258       .  A
C65         C984   1.498       .  S
Cr66         O69   1.774       .  S
Cr67         O69   1.770       .  S
Cr68         O69   1.777       .  S
O70         Cr88   2.041       .  S
O70          C78   1.274       .  A
O71         Cr88   1.971       .  S
O71          C72   1.258       .  A
C72          O73   1.271       .  A
C72         C760   1.486       .  S
O73         Cr89   2.033       .  S
O74         Cr89   1.974       .  S
O74          C75   1.260       .  A
C75          O76   1.273       .  A
C75         C781   1.503       .  S
O76         Cr90   2.042       .  S
O77         Cr90   1.962       .  S
O77          C78   1.257       .  A
C78         C809   1.502       .  S
O79         Cr88   1.957       .  S
O79          C87   1.253       .  A
O80         Cr88   2.023       .  S
O80          C81   1.269       .  A
C81          O82   1.255       .  A
C81        C1145   1.478       .  S
O82         Cr89   1.964       .  S
O83         Cr89   2.028       .  S
O83          C84   1.271       .  A
C84          O85   1.259       .  A
C84        C1012   1.491       .  S
O85         Cr90   1.960       .  S
O86         Cr90   2.054       .  S
O86          C87   1.274       .  A
C87        C1068   1.500       .  S
Cr88         O91   1.764       .  S
Cr89         O91   1.764       .  S
Cr90         O91   1.763       .  S
C92         C676   1.623       .  S
C92         C697   1.615       .  S
C92         C725   1.615       .  S
C92        C1516   1.617       .  S
C93         C585   1.612       .  S
C93         C613   1.619       .  S
C93         C641   1.611       .  S
C93         C816   1.612       .  S
C94         C536   1.612       .  S
C94         C557   1.611       .  S
C94         C900   1.613       .  S
C94        C1292   1.614       .  S
O95        Cr113   1.937       .  S
O95         C103   1.255       .  A
O96        Cr113   2.062       .  S
O96          C97   1.276       .  A
C97          O98   1.253       .  A
C97        C1124   1.492       .  S
O98        Cr114   1.951       .  S
O99        Cr114   2.059       .  S
O99         C100   1.278       .  A
C100        O101   1.253       .  A
C100        C473   1.516   1_455  S
O101       Cr115   1.945       .  S
O102       Cr115   2.046       .  S
O102        C103   1.277       .  A
C103        C501   1.482   1_556  S
O104       Cr113   2.047       .  S
O104        C112   1.271       .  A
O105       Cr113   1.947       .  S
O105        C106   1.252       .  A
C106        O107   1.276       .  A
C106        C648   1.508       .  S
O107       Cr114   2.068       .  S
O108       Cr114   1.951       .  S
O108        C109   1.255       .  A
C109        O110   1.273       .  A
C109        C529   1.489       .  S
O110       Cr115   2.040       .  S
O111       Cr115   1.958       .  S
O111        C112   1.253       .  A
C112        C732   1.493       .  S
Cr113       O116   1.760       .  S
Cr114       O116   1.763       .  S
Cr115       O116   1.763       .  S
C117        C424   1.615       .  S
C117        C452   1.614       .  S
C117        C788   1.622       .  S
C117       C1432   1.609       .  S
C118        C368   1.618       .  S
C118        C396   1.618       .  S
C118        C872   1.621       .  S
C118       C1404   1.605       .  S
C119        C333   1.603       .  S
C119        C508   1.605       .  S
C119       C1313   1.615       .  S
C119       C1376   1.618       .  S
O120       Cr138   1.955       .  S
O120        C128   1.258       .  A
O121       Cr138   2.044       .  S
O121        C122   1.271       .  A
C122        O123   1.252       .  A
C122        C592   1.490       .  S
O123       Cr139   1.947       .  S
O124       Cr139   2.035       .  S
O124        C125   1.271       .  A
C125        O126   1.257       .  A
C125        C305   1.487       .  S
O126       Cr140   1.963       .  S
O127       Cr140   2.037       .  S
O127        C128   1.273       .  A
C128       C1040   1.498       .  S
O129       Cr138   2.041       .  S
O129        C137   1.272       .  A
O130       Cr138   1.956       .  S
O130        C131   1.256       .  A
C131        O132   1.272       .  A
C131        C389   1.482       .  S
O132       Cr139   2.038       .  S
O133       Cr139   1.947       .  S
O133        C134   1.252       .  A
C134        O135   1.269       .  A
C134        C340   1.477       .  S
O135       Cr140   2.032       .  S
O136       Cr140   1.971       .  S
O136        C137   1.257       .  A
C137        C445   1.491       .  S
Cr138       O141   1.770       .  S
Cr139       O141   1.764       .  S
Cr140       O141   1.770       .  S
O142       Cr160   2.040       .  S
O142        C150   1.271       .  A
O143       Cr160   1.969       .  S
O143        C144   1.259       .  A
C144        O145   1.274       .  A
C144        C277   1.504       .  S
O145       Cr161   2.043       .  S
O146       Cr161   1.972       .  S
O146        C147   1.262       .  A
C147        O148   1.272       .  A
C147        C928   1.510       .  S
O148       Cr162   2.028       .  S
O149       Cr162   1.966       .  S
O149        C150   1.257       .  A
C150        C361   1.497       .  S
O151       Cr160   1.963       .  S
O151        C159   1.257       .  A
O152       Cr160   2.036       .  S
O152        C153   1.272       .  A
C153        O154   1.259       .  A
C153        C620   1.500       .  S
O154       Cr161   1.966       .  S
O155       Cr161   2.037       .  S
O155        C156   1.270       .  A
C156        O157   1.257       .  A
C156        C704   1.502       .  S
O157       Cr162   1.964       .  S
O158       Cr162   2.034       .  S
O158        C159   1.271       .  A
C159        C564   1.487       .  S
Cr160       O163   1.766       .  S
Cr161       O163   1.767       .  S
Cr162       O163   1.759       .  S
C164        C249   1.610       .  S
C164        C844   1.607       .  S
C164       C1264   1.600       .  S
C164       C1460   1.619       .  S
C165        C221   1.617       .  S
C165        C284   1.619       .  S
C165        C312   1.621       .  S
C165       C1229   1.608       .  S
C166        C200   1.617       .  S
C166        C480   1.619       .  S
C166        C753   1.608       .  S
C166       C1208   1.613       .  S
O167       Cr185   1.954       .  S
O167        C175   1.255       .  A
O168       Cr185   2.043       .  S
O168        C169   1.273       .  A
C169        O170   1.258       .  A
C169        C669   1.493       .  S
O170       Cr186   1.967       .  S
O171       Cr186   2.039       .  S
O171        C172   1.272       .  A
C172        O173   1.257       .  A
C172        C949   1.489   1_554  S
O173       Cr187   1.958       .  S
O174       Cr187   2.036       .  S
O174        C175   1.271       .  A
C175        C417   1.483   1_565  S
O176       Cr185   2.034       .  S
O176        C184   1.269       .  A
O177       Cr185   1.952       .  S
O177        C178   1.253       .  A
C178        O179   1.272       .  A
C178        C228   1.486       .  S
O179       Cr186   2.042       .  S
O180       Cr186   1.964       .  S
O180        C181   1.257       .  A
C181        O182   1.270       .  A
C181        C193   1.484       .  S
O182       Cr187   2.033       .  S
O183       Cr187   1.961       .  S
O183        C184   1.256       .  A
C184        C256   1.480       .  S
Cr185       O188   1.767       .  S
Cr186       O188   1.769       .  S
Cr187       O188   1.767       .  S
C189        C190   1.412       .  A
C189        C194   1.413       .  A
C189        C207   1.450       .  S
C190        C195   1.501       .  S
C190        C191   1.411       .  A
C191        C192   1.409       .  A
C191        C196   1.451       .  S
C192        C193   1.412       .  A
C192        C208   1.448       .  S
C193        C194   1.413       .  A
C194        C197   1.450       .  S
C195        C198   1.396       .  A
C195        C202   1.399       .  A
C196        N213   1.157       .  T
C197        N215   1.157   1_554  T
C198        C199   1.417       .  A
C198        C203   1.455       .  S
C199        C200   1.452       .  A
C199        C205   1.450       .  S
C200        C201   1.458       .  A
C201        C202   1.418       .  A
C201        C204   1.453       .  S
C202        C206   1.459       .  S
C203        N210   1.157       .  T
C204        N211   1.159       .  T
C205        N209   1.157       .  T
C206        N212   1.157       .  T
C207        N216   1.157   1_554  T
C208        N214   1.156       .  T
C217        C218   1.398       .  A
C217        C222   1.417       .  A
C217        C235   1.455       .  S
C218        C223   1.507       .  S
C218        C219   1.400       .  A
C219        C220   1.425       .  A
C219        C224   1.455       .  S
C220        C221   1.451       .  A
C220        C236   1.445       .  S
C221        C222   1.453       .  A
C222        C225   1.451       .  S
C223        C226   1.415       .  A
C223        C230   1.411       .  A
C224        N241   1.157       .  T
C225        N243   1.157       .  T
C226        C227   1.418       .  A
C226        C231   1.449       .  S
C227        C228   1.412       .  A
C227        C233   1.449       .  S
C228        C229   1.414       .  A
C229        C230   1.409       .  A
C229        C232   1.454       .  S
C230        C234   1.449       .  S
C231        N238   1.157       .  T
C232        N239   1.157       .  T
C233        N237   1.157       .  T
C234        N240   1.157       .  T
C235        N244   1.157       .  T
C236        N242   1.158       .  T
C245        C246   1.407       .  A
C245        C250   1.419       .  A
C245        C263   1.454       .  S
C246        C251   1.510       .  S
C246        C247   1.398       .  A
C247        C248   1.416       .  A
C247        C252   1.455       .  S
C248        C249   1.451       .  A
C248        C264   1.448       .  S
C249        C250   1.444       .  A
C250        C253   1.443       .  S
C251        C254   1.421       .  A
C251        C258   1.414       .  A
C252        N269   1.157       .  T
C253        N271   1.157   1_565  T
C254        C255   1.413       .  A
C254        C259   1.450       .  S
C255        C256   1.407       .  A
C255        C261   1.450       .  S
C256        C257   1.411       .  A
C257        C258   1.411       .  A
C257        C260   1.450   1_565  S
C258        C262   1.451   1_565  S
C259        N266   1.157       .  T
C260        N267   1.157       .  T
C261        N265   1.157       .  T
C262        N268   1.157       .  T
C263        N272   1.157       .  T
C264        N270   1.157       .  T
C273        C274   1.412       .  A
C273        C278   1.420       .  A
C273        C291   1.449       .  S
C274        C279   1.508       .  S
C274        C275   1.409       .  A
C275        C276   1.410       .  A
C275        C280   1.453       .  S
C276        C277   1.423       .  A
C276        C292   1.453       .  S
C277        C278   1.419       .  A
C278        C281   1.449       .  S
C279        C282   1.401       .  A
C279        C286   1.398       .  A
C280        N297   1.157       .  T
C281        N299   1.157       .  T
C282        C283   1.421       .  A
C282        C287   1.454       .  S
C283        C284   1.450       .  A
C283        C289   1.449       .  S
C284        C285   1.452       .  A
C285        C286   1.417       .  A
C285        C288   1.447       .  S
C286        C290   1.456       .  S
C287        N294   1.157       .  T
C288        N295   1.156       .  T
C289        N293   1.157       .  T
C290        N296   1.157       .  T
C291        N300   1.157       .  T
C292        N298   1.158       .  T
C301        C302   1.412       .  A
C301        C306   1.412       .  A
C301        C319   1.450       .  S
C302        C307   1.507       .  S
C302        C303   1.415       .  A
C303        C304   1.416       .  A
C303        C308   1.450       .  S
C304        C305   1.412       .  A
C304        C320   1.450       .  S
C305        C306   1.413       .  A
C306        C309   1.451       .  S
C307        C310   1.400       .  A
C307        C314   1.397       .  A
C308        N325   1.157       .  T
C309        N327   1.157       .  T
C310        C311   1.424       .  A
C310        C315   1.452       .  S
C311        C312   1.449       .  A
C311        C317   1.449       .  S
C312        C313   1.456       .  A
C313        C314   1.415       .  A
C313        C316   1.449       .  S
C314        C318   1.459       .  S
C315        N322   1.157       .  T
C316        N323   1.157       .  T
C317        N321   1.157       .  T
C318        N324   1.157       .  T
C319        N328   1.157       .  T
C320        N326   1.157       .  T
C329        C330   1.399       .  A
C329        C334   1.417       .  A
C329        C347   1.454       .  S
C330        C335   1.499       .  S
C330        C331   1.404       .  A
C331        C332   1.414       .  A
C331        C336   1.454       .  S
C332        C333   1.445       .  A
C332        C348   1.452       .  S
C333        C334   1.451       .  A
C334        C337   1.451       .  S
C335        C338   1.409       .  A
C335        C342   1.415       .  A
C336        N353   1.157       .  T
C337        N355   1.158       .  T
C338        C339   1.406       .  A
C338        C343   1.452       .  S
C339        C340   1.414       .  A
C339        C345   1.452       .  S
C340        C341   1.408       .  A
C341        C342   1.414       .  A
C341        C344   1.450       .  S
C342        C346   1.448       .  S
C343        N350   1.157       .  T
C344        N351   1.157       .  T
C345        N349   1.157       .  T
C346        N352   1.157       .  T
C347        N356   1.158       .  T
C348        N354   1.157       .  T
C357        C358   1.413   1_565  A
C357        C362   1.419       .  A
C357        C375   1.449       .  S
C358        C363   1.507       .  S
C358        C359   1.409       .  A
C359        C360   1.409   1_545  A
C359        C364   1.452       .  S
C360        C361   1.421       .  A
C360        C376   1.452       .  S
C361        C362   1.416       .  A
C362        C365   1.449       .  S
C363        C366   1.398       .  A
C363        C370   1.398       .  A
C364        N381   1.157       .  T
C365        N383   1.158       .  T
C366        C367   1.420       .  A
C366        C371   1.455       .  S
C367        C368   1.451       .  A
C367        C373   1.449       .  S
C368        C369   1.455       .  A
C369        C370   1.420       .  A
C369        C372   1.448       .  S
C370        C374   1.457       .  S
C371        N378   1.157   1_545  T
C372        N379   1.157       .  T
C373        N377   1.157       .  T
C374        N380   1.157       .  T
C375        N384   1.157       .  T
C376        N382   1.157       .  T
C385        C386   1.412       .  A
C385        C390   1.409       .  A
C385        C403   1.450       .  S
C386        C391   1.504       .  S
C386        C387   1.414       .  A
C387        C388   1.415       .  A
C387        C392   1.449       .  S
C388        C389   1.410       .  A
C388        C404   1.449       .  S
C389        C390   1.412       .  A
C390        C393   1.452       .  S
C391        C394   1.398       .  A
C391        C398   1.397       .  A
C392        N409   1.157       .  T
C393        N411   1.157       .  T
C394        C395   1.423       .  A
C394        C399   1.456       .  S
C395        C396   1.452       .  A
C395        C401   1.444       .  S
C396        C397   1.455       .  A
C397        C398   1.417       .  A
C397        C400   1.451       .  S
C398        C402   1.457       .  S
C399        N406   1.157       .  T
C400        N407   1.157       .  T
C401        N405   1.157       .  T
C402        N408   1.158       .  T
C403        N412   1.157       .  T
C404        N410   1.157       .  T
C413        C414   1.411       .  A
C413        C418   1.409       .  A
C413        C431   1.450       .  S
C414        C419   1.502       .  S
C414        C415   1.414       .  A
C415        C416   1.414       .  A
C415        C420   1.449       .  S
C416        C417   1.408       .  A
C416        C432   1.447       .  S
C417        C418   1.414       .  A
C418        C421   1.452       .  S
C419        C422   1.398       .  A
C419        C426   1.398       .  A
C420        N437   1.157       .  T
C421        N439   1.157   1_545  T
C422        C423   1.420       .  A
C422        C427   1.453       .  S
C423        C424   1.449       .  A
C423        C429   1.449       .  S
C424        C425   1.455       .  A
C425        C426   1.416       .  A
C425        C428   1.452       .  S
C426        C430   1.457       .  S
C427        N434   1.157       .  T
C428        N435   1.158       .  T
C429        N433   1.157       .  T
C430        N436   1.157       .  T
C431        N440   1.157       .  T
C432        N438   1.156       .  T
C441        C442   1.418       .  A
C441        C446   1.415       .  A
C441        C459   1.451       .  S
C442        C447   1.517       .  S
C442        C443   1.417       .  A
C443        C444   1.413       .  A
C443        C448   1.451       .  S
C444        C445   1.409       .  A
C444        C460   1.446       .  S
C445        C446   1.413       .  A
C446        C449   1.449       .  S
C447        C450   1.403       .  A
C447        C454   1.405       .  A
C448        N465   1.157       .  T
C449        N467   1.157       .  T
C450        C451   1.416       .  A
C450        C455   1.455       .  S
C451        C452   1.450       .  A
C451        C457   1.453       .  S
C452        C453   1.450       .  A
C453        C454   1.424       .  A
C453        C456   1.447       .  S
C454        C458   1.456       .  S
C455        N462   1.157       .  T
C456        N463   1.158       .  T
C457        N461   1.157       .  T
C458        N464   1.157       .  T
C459        N468   1.157       .  T
C460        N466   1.156       .  T
C469        C470   1.407       .  A
C469        C474   1.407       .  A
C469        C487   1.451   1_556  S
C470        C475   1.514       .  S
C470        C471   1.413       .  A
C471        C472   1.423       .  A
C471        C476   1.449       .  S
C472        C473   1.421       .  A
C472        C488   1.446       .  S
C473        C474   1.428       .  A
C474        C477   1.450   1_656  S
C475        C478   1.406       .  A
C475        C482   1.398       .  A
C476        N493   1.157       .  T
C477        N495   1.156       .  T
C478        C479   1.422   1_556  A
C478        C483   1.453       .  S
C479        C480   1.448       .  A
C479        C485   1.449       .  S
C480        C481   1.454       .  A
C481        C482   1.419   1_554  A
C481        C484   1.449       .  S
C482        C486   1.454       .  S
C483        N490   1.157       .  T
C484        N491   1.157       .  T
C485        N489   1.158       .  T
C486        N492   1.157       .  T
C487        N496   1.158       .  T
C488        N494   1.157       .  T
C497        C498   1.409       .  A
C497        C502   1.404       .  A
C497        C515   1.453       .  S
C498        C503   1.496       .  S
C498        C499   1.412       .  A
C499        C500   1.414       .  A
C499        C504   1.449       .  S
C500        C501   1.412       .  A
C500        C516   1.449       .  S
C501        C502   1.417       .  A
C502        C505   1.454       .  S
C503        C506   1.400       .  A
C503        C510   1.396       .  A
C504        N521   1.157       .  T
C505        N523   1.158   1_554  T
C506        C507   1.415       .  A
C506        C511   1.456       .  S
C507        C508   1.447       .  A
C507        C513   1.449       .  S
C508        C509   1.450       .  A
C509        C510   1.414       .  A
C509        C512   1.446       .  S
C510        C514   1.457       .  S
C511        N518   1.157       .  T
C512        N519   1.156       .  T
C513        N517   1.157       .  T
C514        N520   1.157       .  T
C515        N524   1.157       .  T
C516        N522   1.157       .  T
C525        C526   1.409       .  A
C525        C530   1.407       .  A
C525        C543   1.449       .  S
C526        C531   1.504       .  S
C526        C527   1.415       .  A
C527        C528   1.418       .  A
C527        C532   1.450       .  S
C528        C529   1.414       .  A
C528        C544   1.450       .  S
C529        C530   1.417       .  A
C530        C533   1.453       .  S
C531        C534   1.399       .  A
C531        C538   1.399       .  A
C532        N549   1.157       .  T
C533        N551   1.157       .  T
C534        C535   1.422       .  A
C534        C539   1.454       .  S
C535        C536   1.453       .  A
C535        C541   1.449       .  S
C536        C537   1.450       .  A
C537        C538   1.415       .  A
C537        C540   1.452       .  S
C538        C542   1.456       .  S
C539        N546   1.157   1_455  T
C540        N547   1.157       .  T
C541        N545   1.158   1_455  T
C542        N548   1.157       .  T
C543        N552   1.157       .  T
C544        N550   1.158       .  T
C553        C554   1.401       .  A
C553        C558   1.419       .  A
C553        C571   1.456       .  S
C554        C559   1.503       .  S
C554        C555   1.399       .  A
C555        C556   1.415       .  A
C555        C560   1.455       .  S
C556        C557   1.452       .  A
C556        C572   1.453       .  S
C557        C558   1.452       .  A
C558        C561   1.451       .  S
C559        C562   1.412       .  A
C559        C566   1.412       .  A
C560        N577   1.157       .  T
C561        N579   1.158       .  T
C562        C563   1.412       .  A
C562        C567   1.451       .  S
C563        C564   1.413       .  A
C563        C569   1.449       .  S
C564        C565   1.415       .  A
C565        C566   1.412       .  A
C565        C568   1.452       .  S
C566        C570   1.451       .  S
C567        N574   1.157       .  T
C568        N575   1.157       .  T
C569        N573   1.156       .  T
C570        N576   1.157       .  T
C571        N580   1.157       .  T
C572        N578   1.157       .  T
C581        C582   1.403       .  A
C581        C586   1.420       .  A
C581        C599   1.456       .  S
C582        C587   1.505       .  S
C582        C583   1.396       .  A
C583        C584   1.418       .  A
C583        C588   1.456       .  S
C584        C585   1.453       .  A
C584        C600   1.447       .  S
C585        C586   1.448       .  A
C586        C589   1.445       .  S
C587        C590   1.417       .  A
C587        C594   1.410       .  A
C588        N605   1.157       .  T
C589        N607   1.157       .  T
C590        C591   1.416       .  A
C590        C595   1.449       .  S
C591        C592   1.410       .  A
C591        C597   1.450       .  S
C592        C593   1.418       .  A
C593        C594   1.407       .  A
C593        C596   1.452       .  S
C594        C598   1.452       .  S
C595        N602   1.157       .  T
C596        N603   1.157       .  T
C597        N601   1.157       .  T
C598        N604   1.157       .  T
C599        N608   1.157       .  T
C600        N606   1.157       .  T
C609        C610   1.400       .  A
C609        C614   1.416       .  A
C609        C627   1.456       .  S
C610        C615   1.507       .  S
C610        C611   1.405       .  A
C611        C612   1.421       .  A
C611        C616   1.455       .  S
C612        C613   1.445       .  A
C612        C628   1.446       .  S
C613        C614   1.451       .  A
C614        C617   1.450       .  S
C615        C618   1.411       .  A
C615        C622   1.415       .  A
C616        N633   1.157       .  T
C617        N635   1.158       .  T
C618        C619   1.409       .  A
C618        C623   1.452       .  S
C619        C620   1.421       .  A
C619        C625   1.451       .  S
C620        C621   1.418       .  A
C621        C622   1.416       .  A
C621        C624   1.451       .  S
C622        C626   1.451       .  S
C623        N630   1.157       .  T
C624        N631   1.158       .  T
C625        N629   1.157       .  T
C626        N632   1.157       .  T
C627        N636   1.157       .  T
C628        N634   1.158       .  T
C637        C638   1.405       .  A
C637        C642   1.420       .  A
C637        C655   1.453       .  S
C638        C643   1.518       .  S
C638        C639   1.405       .  A
C639        C640   1.419       .  A
C639        C644   1.457       .  S
C640        C641   1.448       .  A
C640        C656   1.446       .  S
C641        C642   1.448       .  A
C642        C645   1.449       .  S
C643        C646   1.420       .  A
C643        C650   1.416       .  A
C644        N661   1.157       .  T
C645        N663   1.157       .  T
C646        C647   1.423       .  A
C646        C651   1.450       .  S
C647        C648   1.418       .  A
C647        C653   1.447       .  S
C648        C649   1.422       .  A
C649        C650   1.403       .  A
C649        C652   1.455       .  S
C650        C654   1.454       .  S
C651        N658   1.156       .  T
C652        N659   1.157       .  T
C653        N657   1.158       .  T
C654        N660   1.158       .  T
C655        N664   1.158       .  T
C656        N662   1.158       .  T
C665        C666   1.413       .  A
C665        C670   1.417       .  A
C665        C683   1.449       .  S
C666        C671   1.511       .  S
C666        C667   1.413       .  A
C667        C668   1.414       .  A
C667        C672   1.450       .  S
C668        C669   1.415       .  A
C668        C684   1.452       .  S
C669        C670   1.414       .  A
C670        C673   1.449       .  S
C671        C674   1.397       .  A
C671        C678   1.399   1_554  A
C672        N689   1.157   1_554  T
C673        N691   1.157       .  T
C674        C675   1.422       .  A
C674        C679   1.457       .  S
C675        C676   1.457   1_554  A
C675        C681   1.446       .  S
C676        C677   1.451       .  A
C677        C678   1.422       .  A
C677        C680   1.449       .  S
C678        C682   1.454       .  S
C679        N686   1.157       .  T
C680        N687   1.157       .  T
C681        N685   1.157       .  T
C682        N688   1.157       .  T
C683        N692   1.157       .  T
C684        N690   1.157       .  T
C693        C694   1.399       .  A
C693        C698   1.421       .  A
C693        C711   1.453       .  S
C694        C699   1.501       .  S
C694        C695   1.397       .  A
C695        C696   1.413       .  A
C695        C700   1.459       .  S
C696        C697   1.453       .  A
C696        C712   1.447       .  S
C697        C698   1.450       .  A
C698        C701   1.450       .  S
C699        C702   1.411       .  A
C699        C706   1.406       .  A
C700        N717   1.157       .  T
C701        N719   1.157       .  T
C702        C703   1.414       .  A
C702        C707   1.451       .  S
C703        C704   1.418       .  A
C703        C709   1.448       .  S
C704        C705   1.424       .  A
C705        C706   1.410       .  A
C705        C708   1.452       .  S
C706        C710   1.450       .  S
C707        N714   1.157       .  T
C708        N715   1.157       .  T
C709        N713   1.157       .  T
C710        N716   1.157       .  T
C711        N720   1.157       .  T
C712        N718   1.157       .  T
C721        C722   1.401       .  A
C721        C726   1.424       .  A
C721        C739   1.454   1_556  S
C722        C727   1.510       .  S
C722        C723   1.401       .  A
C723        C724   1.418       .  A
C723        C728   1.457       .  S
C724        C725   1.451       .  A
C724        C740   1.449       .  S
C725        C726   1.451       .  A
C726        C729   1.449   1_556  S
C727        C730   1.411       .  A
C727        C734   1.415       .  A
C728        N745   1.157       .  T
C729        N747   1.158       .  T
C730        C731   1.411       .  A
C730        C735   1.451       .  S
C731        C732   1.417       .  A
C731        C737   1.452       .  S
C732        C733   1.412       .  A
C733        C734   1.418       .  A
C733        C736   1.448       .  S
C734        C738   1.449       .  S
C735        N742   1.157   1_556  T
C736        N743   1.156       .  T
C737        N741   1.157       .  T
C738        N744   1.157       .  T
C739        N748   1.157       .  T
C740        N746   1.157       .  T
C749        C750   1.400   1_556  A
C749        C754   1.413   1_556  A
C749        C767   1.456       .  S
C750        C755   1.507   1_554  S
C750        C751   1.401       .  A
C751        C752   1.423       .  A
C751        C756   1.456       .  S
C752        C753   1.453       .  A
C752        C768   1.450       .  S
C753        C754   1.448       .  A
C754        C757   1.452   1_554  S
C755        C758   1.411       .  A
C755        C762   1.416   1_556  A
C756        N773   1.157       .  T
C757        N775   1.157       .  T
C758        C759   1.407       .  A
C758        C763   1.454       .  S
C759        C760   1.414       .  A
C759        C765   1.450       .  S
C760        C761   1.412       .  A
C761        C762   1.418   1_556  A
C761        C764   1.449       .  S
C762        C766   1.449       .  S
C763        N770   1.157       .  T
C764        N771   1.157       .  T
C765        N769   1.157       .  T
C766        N772   1.157       .  T
C767        N776   1.157       .  T
C768        N774   1.158       .  T
C777        C778   1.410       .  A
C777        C782   1.413       .  A
C777        C795   1.452       .  S
C778        C783   1.511       .  S
C778        C779   1.413       .  A
C779        C780   1.419   1_554  A
C779        C784   1.449   1_554  S
C780        C781   1.416       .  A
C780        C796   1.449       .  S
C781        C782   1.422   1_556  A
C782        C785   1.452       .  S
C783        C786   1.400       .  A
C783        C790   1.399       .  A
C784        N801   1.157       .  T
C785        N803   1.157       .  T
C786        C787   1.421       .  A
C786        C791   1.456       .  S
C787        C788   1.457       .  A
C787        C793   1.452       .  S
C788        C789   1.450       .  A
C789        C790   1.420       .  A
C789        C792   1.449       .  S
C790        C794   1.455       .  S
C791        N798   1.157       .  T
C792        N799   1.157       .  T
C793        N797   1.159       .  T
C794        N800   1.157   1_554  T
C795        N804   1.157       .  T
C796        N802   1.157       .  T
C805        C806   1.409       .  A
C805        C810   1.409       .  A
C805        C823   1.453       .  S
C806        C811   1.506       .  S
C806        C807   1.414       .  A
C807        C808   1.416       .  A
C807        C812   1.450       .  S
C808        C809   1.417       .  A
C808        C824   1.450       .  S
C809        C810   1.425       .  A
C810        C813   1.453       .  S
C811        C814   1.401       .  A
C811        C818   1.401       .  A
C812        N829   1.157       .  T
C813        N831   1.158       .  T
C814        C815   1.422       .  A
C814        C819   1.454       .  S
C815        C816   1.445       .  A
C815        C821   1.446       .  S
C816        C817   1.452       .  A
C817        C818   1.413       .  A
C817        C820   1.452       .  S
C818        C822   1.457       .  S
C819        N826   1.157       .  T
C820        N827   1.157       .  T
C821        N825   1.157       .  T
C822        N828   1.157       .  T
C823        N832   1.157       .  T
C824        N830   1.157       .  T
C833        C834   1.414       .  A
C833        C838   1.414       .  A
C833        C851   1.448       .  S
C834        C839   1.502       .  S
C834        C835   1.411       .  A
C835        C836   1.410       .  A
C835        C840   1.451       .  S
C836        C837   1.414       .  A
C836        C852   1.451       .  S
C837        C838   1.410       .  A
C838        C841   1.449       .  S
C839        C842   1.400   1_545  A
C839        C846   1.399       .  A
C840        N857   1.157       .  T
C841        N859   1.157       .  T
C842        C843   1.416       .  A
C842        C847   1.457       .  S
C843        C844   1.449       .  A
C843        C849   1.447       .  S
C844        C845   1.448   1_565  A
C845        C846   1.419       .  A
C845        C848   1.450       .  S
C846        C850   1.452       .  S
C847        N854   1.157       .  T
C848        N855   1.157       .  T
C849        N853   1.157       .  T
C850        N856   1.157       .  T
C851        N860   1.157       .  T
C852        N858   1.157       .  T
C861        C862   1.415       .  A
C861        C866   1.418       .  A
C861        C879   1.449       .  S
C862        C867   1.508       .  S
C862        C863   1.412       .  A
C863        C864   1.411       .  A
C863        C868   1.449       .  S
C864        C865   1.413       .  A
C864        C880   1.452       .  S
C865        C866   1.412       .  A
C866        C869   1.447       .  S
C867        C870   1.398       .  A
C867        C874   1.400       .  A
C868        N885   1.157       .  T
C869        N887   1.157       .  T
C870        C871   1.417       .  A
C870        C875   1.457       .  S
C871        C872   1.457       .  A
C871        C877   1.452       .  S
C872        C873   1.449       .  A
C873        C874   1.424       .  A
C873        C876   1.450       .  S
C874        C878   1.452       .  S
C875        N882   1.157       .  T
C876        N883   1.157       .  T
C877        N881   1.158       .  T
C878        N884   1.157       .  T
C879        N888   1.157       .  T
C880        N886   1.157       .  T
C889        C890   1.416       .  A
C889        C894   1.415       .  A
C889        C907   1.450       .  S
C890        C895   1.509       .  S
C890        C891   1.416       .  A
C891        C892   1.411       .  A
C891        C896   1.451       .  S
C892        C893   1.412       .  A
C892        C908   1.452   1_565  S
C893        C894   1.410       .  A
C894        C897   1.447       .  S
C895        C898   1.403       .  A
C895        C902   1.401   1_655  A
C896        N913   1.157   1_655  T
C897        N915   1.157       .  T
C898        C899   1.418       .  A
C898        C903   1.452       .  S
C899        C900   1.450   1_655  A
C899        C905   1.451       .  S
C900        C901   1.449       .  A
C901        C902   1.412       .  A
C901        C904   1.447       .  S
C902        C906   1.454       .  S
C903        N910   1.157       .  T
C904        N911   1.157       .  T
C905        N909   1.157       .  T
C906        N912   1.157       .  T
C907        N916   1.157       .  T
C908        N914   1.157       .  T
C917        C918   1.398       .  A
C917        C922   1.422       .  A
C917        C935   1.456       .  S
C918        C923   1.505   1_545  S
C918        C919   1.398   1_545  A
C919        C920   1.416   1_565  A
C919        C924   1.455       .  S
C920        C921   1.448       .  A
C920        C936   1.446   1_545  S
C921        C922   1.453       .  A
C922        C925   1.445       .  S
C923        C926   1.408       .  A
C923        C930   1.410   1_565  A
C924        N941   1.157       .  T
C925        N943   1.158       .  T
C926        C927   1.415       .  A
C926        C931   1.449       .  S
C927        C928   1.421       .  A
C927        C933   1.450       .  S
C928        C929   1.424       .  A
C929        C930   1.414   1_565  A
C929        C932   1.450       .  S
C930        C934   1.453       .  S
C931        N938   1.157       .  T
C932        N939   1.157   1_565  T
C933        N937   1.157       .  T
C934        N940   1.157       .  T
C935        N944   1.157       .  T
C936        N942   1.156       .  T
C945        C946   1.410       .  A
C945        C950   1.408       .  A
C945        C963   1.452       .  S
C946        C951   1.504       .  S
C946        C947   1.415       .  A
C947        C948   1.417       .  A
C947        C952   1.448       .  S
C948        C949   1.412       .  A
C948        C964   1.450       .  S
C949        C950   1.415       .  A
C950        C953   1.452   1_556  S
C951        C954   1.401       .  A
C951        C958   1.400   1_565  A
C952        N969   1.157       .  T
C953        N971   1.157       .  T
C954        C955   1.424       .  A
C954        C959   1.452       .  S
C955        C956   1.449   1_565  A
C955        C961   1.448       .  S
C956        C957   1.446       .  A
C957        C958   1.413       .  A
C957        C960   1.447       .  S
C958        C962   1.454       .  S
C959        N966   1.157       .  T
C960        N967   1.157       .  T
C961        N965   1.157       .  T
C962        N968   1.156       .  T
C963        N972   1.157       .  T
C964        N970   1.157       .  T
C973        C974   1.406       .  A
C973        C978   1.426       .  A
C973        C991   1.453       .  S
C974        C979   1.513       .  S
C974        C975   1.399       .  A
C975        C976   1.421       .  A
C975        C980   1.454       .  S
C976        C977   1.450       .  A
C976        C992   1.447       .  S
C977        C978   1.444       .  A
C978        C981   1.445       .  S
C979        C982   1.415       .  A
C979        C986   1.415       .  A
C980        N997   1.157       .  T
C981        N999   1.157       .  T
C982        C983   1.412       .  A
C982        C987   1.447       .  S
C983        C984   1.413       .  A
C983        C989   1.454       .  S
C984        C985   1.413       .  A
C985        C986   1.418       .  A
C985        C988   1.447       .  S
C986        C990   1.449       .  S
C987        N994   1.157       .  T
C988        N995   1.157       .  T
C989        N993   1.157       .  T
C990        N996   1.157   1_545  T
C991       N1000   1.157       .  T
C992        N998   1.157       .  T
C1001      C1002   1.408       .  A
C1001      C1006   1.420       .  A
C1001      C1019   1.452       .  S
C1002      C1007   1.498       .  S
C1002      C1003   1.401       .  A
C1003      C1004   1.405       .  A
C1003      C1008   1.456       .  S
C1004      C1005   1.441       .  A
C1004      C1020   1.448       .  S
C1005      C1006   1.438       .  A
C1006      C1009   1.448       .  S
C1007      C1010   1.414       .  A
C1007      C1014   1.410       .  A
C1008      N1025   1.157       .  T
C1009      N1027   1.157       .  T
C1010      C1011   1.412       .  A
C1010      C1015   1.451       .  S
C1011      C1012   1.415       .  A
C1011      C1017   1.451       .  S
C1012      C1013   1.419       .  A
C1013      C1014   1.407       .  A
C1013      C1016   1.452       .  S
C1014      C1018   1.452       .  S
C1015      N1022   1.157       .  T
C1016      N1023   1.157       .  T
C1017      N1021   1.158       .  T
C1018      N1024   1.157       .  T
C1019      N1028   1.157       .  T
C1020      N1026   1.155       .  T
C1029      C1030   1.398       .  A
C1029      C1034   1.418       .  A
C1029      C1047   1.455       .  S
C1030      C1035   1.504       .  S
C1030      C1031   1.396       .  A
C1031      C1032   1.420       .  A
C1031      C1036   1.459       .  S
C1032      C1033   1.457       .  A
C1032      C1048   1.447       .  S
C1033      C1034   1.450       .  A
C1034      C1037   1.449       .  S
C1035      C1038   1.410       .  A
C1035      C1042   1.414       .  A
C1036      N1053   1.158       .  T
C1037      N1055   1.157       .  T
C1038      C1039   1.407       .  A
C1038      C1043   1.453       .  S
C1039      C1040   1.417       .  A
C1039      C1045   1.451       .  S
C1040      C1041   1.414       .  A
C1041      C1042   1.416       .  A
C1041      C1044   1.448       .  S
C1042      C1046   1.449       .  S
C1043      N1050   1.157       .  T
C1044      N1051   1.157       .  T
C1045      N1049   1.157       .  T
C1046      N1052   1.158       .  T
C1047      N1056   1.157       .  T
C1048      N1054   1.157       .  T
C1057      C1058   1.398       .  A
C1057      C1062   1.414       .  A
C1057      C1075   1.459       .  S
C1058      C1063   1.510       .  S
C1058      C1059   1.403       .  A
C1059      C1060   1.424       .  A
C1059      C1064   1.451       .  S
C1060      C1061   1.449       .  A
C1060      C1076   1.451       .  S
C1061      C1062   1.454       .  A
C1062      C1065   1.447       .  S
C1063      C1066   1.408       .  A
C1063      C1070   1.418       .  A
C1064      N1081   1.159       .  T
C1065      N1083   1.158       .  T
C1066      C1067   1.412       .  A
C1066      C1071   1.453       .  S
C1067      C1068   1.424       .  A
C1067      C1073   1.450       .  S
C1068      C1069   1.412       .  A
C1069      C1070   1.417       .  A
C1069      C1072   1.451       .  S
C1070      C1074   1.448       .  S
C1071      N1078   1.155       .  T
C1072      N1079   1.154       .  T
C1073      N1077   1.161       .  T
C1074      N1080   1.160       .  T
C1075      N1084   1.156       .  T
C1076      N1082   1.156       .  T
C1085      C1086   1.410       .  A
C1085      C1090   1.408       .  A
C1085      C1103   1.451       .  S
C1086      C1091   1.507       .  S
C1086      C1087   1.416       .  A
C1087      C1088   1.417       .  A
C1087      C1092   1.449       .  S
C1088      C1089   1.412       .  A
C1088      C1104   1.449       .  S
C1089      C1090   1.415       .  A
C1090      C1093   1.452       .  S
C1091      C1094   1.401       .  A
C1091      C1098   1.403       .  A
C1092      N1109   1.157       .  T
C1093      N1111   1.157       .  T
C1094      C1095   1.422       .  A
C1094      C1099   1.454       .  S
C1095      C1096   1.452       .  A
C1095      C1101   1.450       .  S
C1096      C1097   1.448       .  A
C1097      C1098   1.416       .  A
C1097      C1100   1.450       .  S
C1098      C1102   1.456       .  S
C1099      N1106   1.157       .  T
C1100      N1107   1.157       .  T
C1101      N1105   1.159       .  T
C1102      N1108   1.157       .  T
C1103      N1112   1.158       .  T
C1104      N1110   1.158       .  T
C1113      C1114   1.401   1_655  A
C1113      C1118   1.421       .  A
C1113      C1131   1.458       .  S
C1114      C1119   1.511       .  S
C1114      C1115   1.398       .  A
C1115      C1116   1.422       .  A
C1115      C1120   1.454       .  S
C1116      C1117   1.452   1_455  A
C1116      C1132   1.449       .  S
C1117      C1118   1.456       .  A
C1118      C1121   1.450       .  S
C1119      C1122   1.417       .  A
C1119      C1126   1.411       .  A
C1120      N1137   1.157       .  T
C1121      N1139   1.158       .  T
C1122      C1123   1.420       .  A
C1122      C1127   1.449       .  S
C1123      C1124   1.411       .  A
C1123      C1129   1.449       .  S
C1124      C1125   1.416       .  A
C1125      C1126   1.409       .  A
C1125      C1128   1.451       .  S
C1126      C1130   1.452       .  S
C1127      N1134   1.157       .  T
C1128      N1135   1.157       .  T
C1129      N1133   1.157       .  T
C1130      N1136   1.157       .  T
C1131      N1140   1.157       .  T
C1132      N1138   1.157       .  T
C1141      C1142   1.414       .  A
C1141      C1146   1.408       .  A
C1141      C1159   1.451       .  S
C1142      C1147   1.504       .  S
C1142      C1143   1.415       .  A
C1143      C1144   1.413       .  A
C1143      C1148   1.450       .  S
C1144      C1145   1.411       .  A
C1144      C1160   1.451       .  S
C1145      C1146   1.411       .  A
C1146      C1149   1.451       .  S
C1147      C1150   1.401       .  A
C1147      C1154   1.399       .  A
C1148      N1165   1.157       .  T
C1149      N1167   1.157       .  T
C1150      C1151   1.419       .  A
C1150      C1155   1.457       .  S
C1151      C1152   1.453       .  A
C1151      C1157   1.451       .  S
C1152      C1153   1.451       .  A
C1153      C1154   1.415       .  A
C1153      C1156   1.452       .  S
C1154      C1158   1.455       .  S
C1155      N1162   1.157       .  T
C1156      N1163   1.157       .  T
C1157      N1161   1.159       .  T
C1158      N1164   1.157       .  T
C1159      N1168   1.157       .  T
C1160      N1166   1.158       .  T
C1169      C1170   1.397       .  A
C1169      C1174   1.414       .  A
C1169      C1187   1.457       .  S
C1170      C1175   1.505       .  S
C1170      C1171   1.399       .  A
C1171      C1172   1.425       .  A
C1171      C1176   1.454   1_655  S
C1172      C1173   1.452       .  A
C1172      C1188   1.446   1_655  S
C1173      C1174   1.453       .  A
C1174      C1177   1.451       .  S
C1175      C1178   1.414       .  A
C1175      C1182   1.411       .  A
C1176      N1193   1.157       .  T
C1177      N1195   1.157       .  T
C1178      C1179   1.416       .  A
C1178      C1183   1.449       .  S
C1179      C1180   1.411       .  A
C1179      C1185   1.449       .  S
C1180      C1181   1.413       .  A
C1181      C1182   1.410       .  A
C1181      C1184   1.452       .  S
C1182      C1186   1.450   1_655  S
C1183      N1190   1.157       .  T
C1184      N1191   1.157   1_655  T
C1185      N1189   1.157       .  T
C1186      N1192   1.157       .  T
C1187      N1196   1.157       .  T
C1188      N1194   1.158       .  T
C1197      C1198   1.412       .  A
C1197      C1202   1.411       .  A
C1197      C1215   1.452       .  S
C1198      C1203   1.501       .  S
C1198      C1199   1.411       .  A
C1199      C1200   1.412       .  A
C1199      C1204   1.450       .  S
C1200      C1201   1.414       .  A
C1200      C1216   1.451       .  S
C1201      C1202   1.413       .  A
C1202      C1205   1.448       .  S
C1203      C1206   1.397       .  A
C1203      C1210   1.398       .  A
C1204      N1221   1.157       .  T
C1205      N1223   1.157       .  T
C1206      C1207   1.417       .  A
C1206      C1211   1.457       .  S
C1207      C1208   1.452       .  A
C1207      C1213   1.443       .  S
C1208      C1209   1.451       .  A
C1209      C1210   1.417       .  A
C1209      C1212   1.450       .  S
C1210      C1214   1.456       .  S
C1211      N1218   1.157       .  T
C1212      N1219   1.157       .  T
C1213      N1217   1.155       .  T
C1214      N1220   1.157       .  T
C1215      N1224   1.157       .  T
C1216      N1222   1.157       .  T
C1225      C1226   1.397       .  A
C1225      C1230   1.414       .  A
C1225      C1243   1.455       .  S
C1226      C1231   1.501       .  S
C1226      C1227   1.401       .  A
C1227      C1228   1.421       .  A
C1227      C1232   1.455       .  S
C1228      C1229   1.449       .  A
C1228      C1244   1.448       .  S
C1229      C1230   1.453       .  A
C1230      C1233   1.452       .  S
C1231      C1234   1.409       .  A
C1231      C1238   1.412       .  A
C1232      N1249   1.157       .  T
C1233      N1251   1.157       .  T
C1234      C1235   1.410       .  A
C1234      C1239   1.452       .  S
C1235      C1236   1.420       .  A
C1235      C1241   1.453       .  S
C1236      C1237   1.416       .  A
C1237      C1238   1.413       .  A
C1237      C1240   1.450       .  S
C1238      C1242   1.449       .  S
C1239      N1246   1.158       .  T
C1240      N1247   1.158       .  T
C1241      N1245   1.157       .  T
C1242      N1248   1.157       .  T
C1243      N1252   1.157       .  T
C1244      N1250   1.158       .  T
C1253      C1254   1.408       .  A
C1253      C1258   1.403       .  A
C1253      C1271   1.454       .  S
C1254      C1259   1.493       .  S
C1254      C1255   1.413       .  A
C1255      C1256   1.410       .  A
C1255      C1260   1.451       .  S
C1256      C1257   1.415       .  A
C1256      C1272   1.451       .  S
C1257      C1258   1.421       .  A
C1258      C1261   1.453       .  S
C1259      C1262   1.398       .  A
C1259      C1266   1.404       .  A
C1260      N1277   1.157       .  T
C1261      N1279   1.157       .  T
C1262      C1263   1.408       .  A
C1262      C1267   1.458       .  S
C1263      C1264   1.448       .  A
C1263      C1269   1.451       .  S
C1264      C1265   1.443       .  A
C1265      C1266   1.416       .  A
C1265      C1268   1.447       .  S
C1266      C1270   1.455       .  S
C1267      N1274   1.157       .  T
C1268      N1275   1.157       .  T
C1269      N1273   1.157       .  T
C1270      N1276   1.157       .  T
C1271      N1280   1.157       .  T
C1272      N1278   1.157       .  T
C1281      C1282   1.409       .  A
C1281      C1286   1.410       .  A
C1281      C1299   1.452       .  S
C1282      C1287   1.504   1_655  S
C1282      C1283   1.413   1_655  A
C1283      C1284   1.417   1_455  A
C1283      C1288   1.448       .  S
C1284      C1285   1.414       .  A
C1284      C1300   1.450   1_655  S
C1285      C1286   1.420       .  A
C1286      C1289   1.452       .  S
C1287      C1290   1.399       .  A
C1287      C1294   1.400       .  A
C1288      N1305   1.157       .  T
C1289      N1307   1.158       .  T
C1290      C1291   1.417       .  A
C1290      C1295   1.457       .  S
C1291      C1292   1.451       .  A
C1291      C1297   1.446       .  S
C1292      C1293   1.450       .  A
C1293      C1294   1.419       .  A
C1293      C1296   1.452       .  S
C1294      C1298   1.453       .  S
C1295      N1302   1.157       .  T
C1296      N1303   1.157       .  T
C1297      N1301   1.157       .  T
C1298      N1304   1.157       .  T
C1299      N1308   1.157       .  T
C1300      N1306   1.157       .  T
C1309      C1310   1.408       .  A
C1309      C1314   1.421       .  A
C1309      C1327   1.453       .  S
C1310      C1315   1.518       .  S
C1310      C1311   1.403       .  A
C1311      C1312   1.418       .  A
C1311      C1316   1.455       .  S
C1312      C1313   1.451       .  A
C1312      C1328   1.449       .  S
C1313      C1314   1.445       .  A
C1314      C1317   1.446       .  S
C1315      C1318   1.419       .  A
C1315      C1322   1.417       .  A
C1316      N1333   1.158       .  T
C1317      N1335   1.158       .  T
C1318      C1319   1.419   1_455  A
C1318      C1323   1.449       .  S
C1319      C1320   1.410       .  A
C1319      C1325   1.448       .  S
C1320      C1321   1.417       .  A
C1321      C1322   1.410   1_655  A
C1321      C1324   1.452       .  S
C1322      C1326   1.454       .  S
C1323      N1330   1.158       .  T
C1324      N1331   1.158       .  T
C1325      N1329   1.156       .  T
C1326      N1332   1.157       .  T
C1327      N1336   1.157   1_455  T
C1328      N1334   1.157       .  T
C1337      C1338   1.416       .  A
C1337      C1342   1.418       .  A
C1337      C1355   1.449       .  S
C1338      C1343   1.517       .  S
C1338      C1339   1.415       .  A
C1339      C1340   1.414       .  A
C1339      C1344   1.452       .  S
C1340      C1341   1.421       .  A
C1340      C1356   1.451       .  S
C1341      C1342   1.414       .  A
C1342      C1345   1.449       .  S
C1343      C1346   1.404       .  A
C1343      C1350   1.405       .  A
C1344      N1361   1.157       .  T
C1345      N1363   1.156       .  T
C1346      C1347   1.424       .  A
C1346      C1351   1.455       .  S
C1347      C1348   1.450       .  A
C1347      C1353   1.448       .  S
C1348      C1349   1.450       .  A
C1349      C1350   1.422       .  A
C1349      C1352   1.449       .  S
C1350      C1354   1.456       .  S
C1351      N1358   1.157       .  T
C1352      N1359   1.157       .  T
C1353      N1357   1.157       .  T
C1354      N1360   1.157       .  T
C1355      N1364   1.158       .  T
C1356      N1362   1.158       .  T
C1365      C1366   1.411       .  A
C1365      C1370   1.413       .  A
C1365      C1383   1.452       .  S
C1366      C1371   1.502       .  S
C1366      C1367   1.407       .  A
C1367      C1368   1.413       .  A
C1367      C1372   1.450       .  S
C1368      C1369   1.424       .  A
C1368      C1384   1.452       .  S
C1369      C1370   1.419       .  A
C1370      C1373   1.450       .  S
C1371      C1374   1.400       .  A
C1371      C1378   1.396       .  A
C1372      N1389   1.157       .  T
C1373      N1391   1.157       .  T
C1374      C1375   1.423       .  A
C1374      C1379   1.453       .  S
C1375      C1376   1.450       .  A
C1375      C1381   1.449       .  S
C1376      C1377   1.454       .  A
C1377      C1378   1.411       .  A
C1377      C1380   1.448       .  S
C1378      C1382   1.459       .  S
C1379      N1386   1.157       .  T
C1380      N1387   1.157       .  T
C1381      N1385   1.157       .  T
C1382      N1388   1.157       .  T
C1383      N1392   1.157       .  T
C1384      N1390   1.158       .  T
C1393      C1394   1.412       .  A
C1393      C1398   1.407       .  A
C1393      C1411   1.451       .  S
C1394      C1399   1.500       .  S
C1394      C1395   1.415       .  A
C1395      C1396   1.411       .  A
C1395      C1400   1.450       .  S
C1396      C1397   1.409       .  A
C1396      C1412   1.450       .  S
C1397      C1398   1.410       .  A
C1398      C1401   1.450       .  S
C1399      C1402   1.397       .  A
C1399      C1406   1.401       .  A
C1400      N1417   1.157       .  T
C1401      N1419   1.156       .  T
C1402      C1403   1.411       .  A
C1402      C1407   1.457       .  S
C1403      C1404   1.451       .  A
C1403      C1409   1.452       .  S
C1404      C1405   1.451       .  A
C1405      C1406   1.421       .  A
C1405      C1408   1.450       .  S
C1406      C1410   1.456       .  S
C1407      N1414   1.157       .  T
C1408      N1415   1.159       .  T
C1409      N1413   1.157       .  T
C1410      N1416   1.157       .  T
C1411      N1420   1.157       .  T
C1412      N1418   1.157       .  T
C1421      C1422   1.412       .  A
C1421      C1426   1.413       .  A
C1421      C1439   1.451       .  S
C1422      C1427   1.505       .  S
C1422      C1423   1.408       .  A
C1423      C1424   1.412       .  A
C1423      C1428   1.453       .  S
C1424      C1425   1.424       .  A
C1424      C1440   1.450       .  S
C1425      C1426   1.422       .  A
C1426      C1429   1.452       .  S
C1427      C1430   1.404       .  A
C1427      C1434   1.396       .  A
C1428      N1445   1.157       .  T
C1429      N1447   1.158       .  T
C1430      C1431   1.422       .  A
C1430      C1435   1.455       .  S
C1431      C1432   1.448       .  A
C1431      C1437   1.448       .  S
C1432      C1433   1.452       .  A
C1433      C1434   1.411       .  A
C1433      C1436   1.451       .  S
C1434      C1438   1.456       .  S
C1435      N1442   1.157       .  T
C1436      N1443   1.157       .  T
C1437      N1441   1.158       .  T
C1438      N1444   1.157       .  T
C1439      N1448   1.157       .  T
C1440      N1446   1.157       .  T
C1449      C1450   1.413   1_465  A
C1449      C1454   1.419   1_565  A
C1449      C1467   1.450       .  S
C1450      C1455   1.510   1_545  S
C1450      C1451   1.410       .  A
C1451      C1452   1.411   1_655  A
C1451      C1456   1.453       .  S
C1452      C1453   1.426       .  A
C1452      C1468   1.453       .  S
C1453      C1454   1.421       .  A
C1454      C1457   1.450   1_545  S
C1455      C1458   1.400   1_565  A
C1455      C1462   1.404       .  A
C1456      N1473   1.157       .  T
C1457      N1475   1.158       .  T
C1458      C1459   1.413   1_545  A
C1458      C1463   1.457       .  S
C1459      C1460   1.450       .  A
C1459      C1465   1.449   1_565  S
C1460      C1461   1.446       .  A
C1461      C1462   1.425       .  A
C1461      C1464   1.447       .  S
C1462      C1466   1.452       .  S
C1463      N1470   1.157   1_655  T
C1464      N1471   1.157       .  T
C1465      N1469   1.157       .  T
C1466      N1472   1.157       .  T
C1467      N1476   1.157       .  T
C1468      N1474   1.157   1_455  T
C1477      C1478   1.396       .  A
C1477      C1482   1.415       .  A
C1477      C1495   1.455   1_556  S
C1478      C1483   1.495   1_655  S
C1478      C1479   1.397       .  A
C1479      C1480   1.414       .  A
C1479      C1484   1.457   1_655  S
C1480      C1481   1.453       .  A
C1480      C1496   1.450       .  S
C1481      C1482   1.450       .  A
C1482      C1485   1.450       .  S
C1483      C1486   1.411   1_456  A
C1483      C1490   1.408       .  A
C1484      N1501   1.157       .  T
C1485      N1503   1.157       .  T
C1486      C1487   1.414   1_655  A
C1486      C1491   1.449       .  S
C1487      C1488   1.413       .  A
C1487      C1493   1.449   1_455  S
C1488      C1489   1.418       .  A
C1489      C1490   1.405   1_554  A
C1489      C1492   1.452       .  S
C1490      C1494   1.453       .  S
C1491      N1498   1.157       .  T
C1492      N1499   1.157       .  T
C1493      N1497   1.157       .  T
C1494      N1500   1.157       .  T
C1495      N1504   1.157       .  T
C1496      N1502   1.158   1_655  T
C1505      C1506   1.414       .  A
C1505      C1510   1.416   1_565  A
C1505      C1523   1.450       .  S
C1506      C1511   1.515   1_554  S
C1506      C1507   1.414   1_565  A
C1507      C1508   1.414       .  A
C1507      C1512   1.452       .  S
C1508      C1509   1.421       .  A
C1508      C1524   1.451       .  S
C1509      C1510   1.418       .  A
C1510      C1513   1.451       .  S
C1511      C1514   1.402       .  A
C1511      C1518   1.404   1_556  A
C1512      N1529   1.157   1_554  T
C1513      N1531   1.157       .  T
C1514      C1515   1.423       .  A
C1514      C1519   1.455       .  S
C1515      C1516   1.452       .  A
C1515      C1521   1.448       .  S
C1516      C1517   1.449   1_556  A
C1517      C1518   1.420       .  A
C1517      C1520   1.449       .  S
C1518      C1522   1.456       .  S
C1519      N1526   1.158   1_565  T
C1520      N1527   1.158       .  T
C1521      N1525   1.157       .  T
C1522      N1528   1.157       .  T
C1523      N1532   1.158   1_554  T
C1524      N1530   1.158       .  T
