geometry optimzed in LAMMPS
_audit_creation_date              2020-11-30 
_audit_creation_method            'lammps2cif' 
_symmetry_space_group_name_H-M    'P1' 
_symmetry_Int_Tables_number       1 
_symmetry_cell_setting            triclinic 
loop_ 
_symmetry_equiv_pos_as_xyz 
  x,y,z 
_cell_length_a                    29.79105349 
_cell_length_b                    29.5468758143874 
_cell_length_c                    40.21989055047755 
_cell_angle_alpha                 89.8465200510647 
_cell_angle_beta                  90.19679146839692 
_cell_angle_gamma                 120.25745371414007 
loop_ 
_atom_site_label 
_atom_site_type_symbol 
_atom_site_fract_x 
_atom_site_fract_y 
_atom_site_fract_z 
_atom_site_charge 
C1          C  0.34718473  0.21492266  0.23075929     0.79700
N2          N  0.38880815  0.23470163  0.21003073    -0.78600
C3          C  0.40743132  0.20370159  0.19904677     0.82200
N4          N  0.38367402  0.15248484  0.20833173    -0.78500
C5          C  0.34132890  0.13216595  0.22839782     0.82300
N6          N  0.32361911  0.16360753  0.23940140    -0.80200
C7          C  0.07205661  0.39538701  0.28297298     0.79700
N8          N  0.09313012  0.44014439  0.30128497    -0.78600
C9          C  0.14412237  0.46502511  0.31017463     0.82200
N10         N  0.17425753  0.44493305  0.30076275    -0.78500
C11         C  0.15362070  0.40000200  0.28287756     0.82300
N12         N  0.10242985  0.37497767  0.27441807    -0.80200
C13         C  0.69343324  0.20615034  0.22362191     0.79700
N14         N  0.67172102  0.23077900  0.20708398    -0.78600
C15         C  0.62106711  0.20322381  0.19722332     0.82200
N16         N  0.59222449  0.15132648  0.20442239    -0.78500
C17         C  0.61353862  0.12671065  0.22096690     0.82300
N18         N  0.66431048  0.15394982  0.22997749    -0.80200
C19         C  0.60510643  0.47861085  0.22984472     0.79700
N20         N  0.58444099  0.43582856  0.20979260    -0.78600
C21         C  0.61451046  0.41609196  0.19918097     0.82200
N22         N  0.66511396  0.43914291  0.20886503    -0.78500
C23         C  0.68575749  0.48158380  0.22919918     0.82300
N24         N  0.65560698  0.50126551  0.23915409    -0.80200
C25         C  0.41672331  0.66876454  0.28384870     0.79700
N26         N  0.37504760  0.64906322  0.30437854    -0.78600
C27         C  0.35222843  0.67768343  0.31180770     0.82200
N28         N  0.37157015  0.72655631  0.29881595    -0.78500
C29         C  0.41335161  0.74665667  0.27817403     0.82300
N30         N  0.43557824  0.71750102  0.27101484    -0.80200
C31         C  0.06183172  0.67261339  0.29120827     0.79700
N32         N  0.08943171  0.72441129  0.28362956    -0.78600
C33         C  0.14078511  0.75325240  0.29106363     0.82200
N34         N  0.16421134  0.73021943  0.30725717    -0.78500
C35         C  0.13680204  0.67849241  0.31531261     0.82300
N36         N  0.08566231  0.64967893  0.30698984    -0.80200
O37         O  0.20133863  0.68595427  0.35261001    -0.82300
C38         C  0.15656346  0.50361529  0.42277515     0.97100
O39         O  0.13434424  0.52959785  0.41752576    -0.71400
O40         O  0.13504986  0.61785791  0.40935796    -0.75000
Al41       Al  0.14134859  0.57120230  0.37967161     1.49000
C42         C  0.16676649  0.65828295  0.42528596     0.92300
O43         O  0.30173860  0.68224155  0.40917952    -0.81200
O44         O  0.30105459  0.61751197  0.35291342    -0.74800
Al45       Al  0.24751594  0.67606854  0.38058921     1.90100
O46         O  0.28249020  0.60165582  0.41981568    -0.73800
O47         O  0.21243114  0.53291978  0.34067849    -0.73700
O48         O  0.19700528  0.51353903  0.40715311    -0.79400
O49         O  0.13330775  0.51736755  0.34984331    -0.77600
O50         O  0.21117485  0.60563679  0.38015060    -1.13700
O51         O  0.13687276  0.60715025  0.34185964    -0.72900
C52         C  0.16009858  0.65585033  0.33709956     0.97800
C53         C  0.30893537  0.65005878  0.42568179     0.94200
Al54       Al  0.24508363  0.56975821  0.38014278     1.55600
O55         O  0.21471631  0.68125876  0.41933439    -0.77500
C56         C  0.16451139  0.50817462  0.33422604     0.98400
C57         C  0.31033929  0.65754028  0.33639210     0.93300
O58         O  0.28548362  0.68088131  0.34162385    -0.82800
C59         C  0.60966273  0.12268995  0.03991174     0.79700
N60         N  0.66081021  0.15146477  0.03179600    -0.78600
C61         C  0.68851834  0.20339854  0.03878097     0.82200
N62         N  0.66553004  0.22639864  0.05504278    -0.78500
C63         C  0.61472464  0.19796215  0.06382434     0.82300
N64         N  0.58672839  0.14615625  0.05605211    -0.80200
C65         C  0.41666023  0.66188159  0.47805167     0.79700
N66         N  0.37241513  0.64051535  0.45951127    -0.78600
C67         C  0.35117861  0.67013449  0.45039340     0.82200
N68         N  0.37404340  0.72104591  0.46033488    -0.78500
C69         C  0.41794869  0.74244046  0.47915617     0.82300
N70         N  0.43950060  0.71292865  0.48730083    -0.80200
C71         C  0.61092614  0.47611692  0.02760379     0.79700
N72         N  0.66126882  0.49797178  0.01785411    -0.78600
C73         C  0.69131344  0.47809801  0.02830823     0.82200
N74         N  0.67071912  0.43605503  0.04906380    -0.78500
C75         C  0.62066033  0.41428446  0.05933120     0.82300
N76         N  0.59108211  0.43455114  0.04867844    -0.80200
C77         C  0.07517274  0.67369871  0.47872243     0.79700
N78         N  0.09628645  0.65182958  0.45934127    -0.78600
C79         C  0.14670960  0.68035729  0.44965867     0.82200
N80         N  0.17612802  0.73130127  0.45927017    -0.78500
C81         C  0.15519405  0.75367275  0.47857868     0.82300
N82         N  0.10465796  0.72457230  0.48792408    -0.80200
C83         C  0.33959633  0.13383751  0.03291663     0.79700
N84         N  0.38397607  0.15588140  0.05118553    -0.78600
C85         C  0.40640112  0.20677850  0.06086276     0.82200
N86         N  0.38434888  0.23569221  0.05200814    -0.78500
C87         C  0.33954137  0.21353267  0.03409251     0.82300
N88         N  0.31689458  0.16239675  0.02515728    -0.80200
C89         C  0.06527065  0.39796120  0.47917139     0.79700
N90         N  0.09395614  0.37549059  0.48733585    -0.78600
C91         C  0.14283705  0.39473129  0.47542021     0.82200
N92         N  0.16297044  0.43692421  0.45487364    -0.78500
C93         C  0.13493643  0.46001858  0.44656390     0.82300
N94         N  0.08600080  0.44034193  0.45861520    -0.80200
O95         O  0.62377242  0.34901739  0.09174543    -0.82300
C96         C  0.44916384  0.22385455  0.17430734     0.97100
O97         O  0.45859858  0.26395701  0.15782088    -0.71400
O98         O  0.54660126  0.34963201  0.16761978    -0.75000
Al99       Al  0.51327524  0.31018675  0.12918034     1.49000
C100        C  0.59430674  0.37396464  0.17441737     0.92300
O101        O  0.62272429  0.27503783  0.16921436    -0.81200
O102        O  0.54525110  0.19819522  0.09184423    -0.74800
Al103      Al  0.61760833  0.30948971  0.13048233     1.90100
O104        O  0.55831460  0.19603169  0.15881533    -0.73800
O105        O  0.45759467  0.19639139  0.10142190    -0.73700
O106        O  0.47343108  0.19995450  0.16880535    -0.79400
O107        O  0.47474268  0.27615051  0.09052685    -0.77600
O108        O  0.54767434  0.27465363  0.13000068    -1.13700
O109        O  0.56006269  0.36422940  0.10041016    -0.72900
C110        C  0.60027863  0.37324954  0.08483691     0.97800
C111        C  0.59932020  0.22639920  0.17446529     0.94200
Al112      Al  0.51192958  0.20422280  0.13024314     1.55600
O113        O  0.62547544  0.36427585  0.15923651    -0.77500
C114        C  0.44915700  0.22772262  0.08500592     0.98400
C115        C  0.59337616  0.22107898  0.08645319     0.93300
O116        O  0.62448980  0.26213225  0.10200453    -0.82800
C117        C  0.33756075  0.36969125  0.99119621    -0.18300
C118        C  0.31014524  0.39532296  0.98322481    -0.20500
C119        C  0.25689574  0.37188355  0.99031411     0.20200
C120        C  0.23103992  0.32199435  0.00548393    -0.03400
C121        C  0.25850538  0.29585125  0.01310606    -0.06500
C122        C  0.31217613  0.32002339  0.00621301     0.20400
C123        C  0.23346100  0.24506474  0.52433713     0.18600
C124        C  0.18044575  0.22122851  0.53204754    -0.18000
C125        C  0.15250836  0.24628559  0.52441584    -0.20200
C126        C  0.17700363  0.29534826  0.50864375     0.20100
C127        C  0.14897549  0.32027750  0.50049129    -0.33200
C128        C  0.17322149  0.36908896  0.48416007     0.00800
C129        C  0.22885497  0.39700015  0.98208465    -0.24500
C130        C  0.33916408  0.29366699  0.01398251    -0.29100
C131        C  0.31249675  0.24272790  0.02724554     0.06500
C132        C  0.26147328  0.21981467  0.53147962    -0.27800
H133        H  0.37850068  0.38844613  0.98524188     0.11200
H134        H  0.33059343  0.43345388  0.97140361     0.12300
H135        H  0.16055922  0.18314466  0.54396501     0.11400
H136        H  0.11158804  0.22708238  0.53063834     0.10600
H137        H  0.10801534  0.30125546  0.50662604     0.16000
H138        H  0.24866411  0.43508900  0.97015951     0.11900
H139        H  0.38036969  0.31197829  0.00886190     0.14800
H140        H  0.24193478  0.18127907  0.54289094     0.14600
C141        C  0.34594856  0.97973254  0.48991243    -0.18300
C142        C  0.31943995  0.92614721  0.48224467    -0.20500
C143        C  0.26594743  0.89491239  0.48850045     0.20200
C144        C  0.23391401  0.91669264  0.00140602    -0.03400
C145        C  0.26045352  0.97064230  0.00898203    -0.06500
C146        C  0.31930037  0.00321423  0.50356717     0.20400
C147        C  0.23425597  0.99250422  0.02572249     0.18600
C148        C  0.18219604  0.96041328  0.03502976    -0.18000
C149        C  0.15616866  0.90690972  0.02792364    -0.20200
C150        C  0.18167892  0.88477880  0.01115086     0.20100
C151        C  0.15559522  0.83127041  0.00387966    -0.33200
C152        C  0.18514675  0.81018716  0.48735354     0.00800
C153        C  0.23884786  0.84103737  0.48093554    -0.24500
C154        C  0.33942304  0.05610433  0.00825358    -0.29100
C155        C  0.31305482  0.07786779  0.02454227     0.06500
C156        C  0.26054177  0.04609002  0.03291419    -0.27800
H157        H  0.38722155  0.00288143  0.48493167     0.11200
H158        H  0.34080311  0.90913506  0.47138730     0.12300
H159        H  0.16165687  0.97666920  0.04792611     0.11400
H160        H  0.11598206  0.88283378  0.03546913     0.10600
H161        H  0.11542266  0.80724551  0.01148709     0.16000
H162        H  0.25950573  0.82326154  0.47005236     0.11900
H163        H  0.38671219  0.08102531  0.50687006     0.14800
H164        H  0.24045849  0.06305824  0.04562882     0.14600
C165        C  0.91081077  0.50665646  0.00806692    -0.18300
C166        C  0.85750846  0.47964486  0.01509259    -0.20500
C167        C  0.82909088  0.50577837  0.01442800     0.20200
C168        C  0.85482022  0.55984749  0.00709048    -0.03400
C169        C  0.90873948  0.58731515  0.00076766    -0.06500
C170        C  0.93677899  0.56046577  0.00078305     0.20400
C171        C  0.93858449  0.64412954  0.49634296     0.18600
C172        C  0.91099384  0.67095445  0.49802497    -0.18000
C173        C  0.85754113  0.64367146  0.50387918    -0.20200
C174        C  0.83096406  0.58920412  0.50853428     0.20100
C175        C  0.77748235  0.56181460  0.51465004    -0.33200
C176        C  0.74725896  0.50539364  0.01990513     0.00800
C177        C  0.77551807  0.47897081  0.02114600    -0.24500
C178        C  0.99019048  0.58796894  0.99347649    -0.29100
C179        C  0.01940162  0.64426926  0.48712657     0.06500
C180        C  0.99200178  0.67124299  0.49003880    -0.27800
H181        H  0.93178612  0.48554196  0.00852407     0.11200
H182        H  0.83846603  0.43828973  0.02096938     0.12300
H183        H  0.93073507  0.71308588  0.49460427     0.11400
H184        H  0.83701042  0.66519546  0.50490104     0.10600
H185        H  0.75670195  0.58312680  0.51575595     0.16000
H186        H  0.75579911  0.43758658  0.02714915     0.11900
H187        H  0.01179185  0.56748154  0.99299830     0.14800
H188        H  0.01206625  0.71339069  0.48648599     0.14600
C189        C  0.60646196  0.63078738  0.48396166    -0.18300
C190        C  0.57895896  0.65682528  0.47810208    -0.20500
C191        C  0.52541733  0.63179629  0.48435920     0.20200
C192        C  0.49550833  0.57790876  0.99807956    -0.03400
C193        C  0.52318985  0.55148377  0.00405241    -0.06500
C194        C  0.58100841  0.57950474  0.49654255     0.20400
C195        C  0.49802048  0.50140552  0.01892541     0.18600
C196        C  0.44524365  0.47805083  0.02738459    -0.18000
C197        C  0.41752674  0.50388633  0.02094087    -0.21200
C198        C  0.44222388  0.55379521  0.00622964     0.20100
C199        C  0.41495348  0.58035539  0.99981069    -0.33200
C200        C  0.44403838  0.63269140  0.48438021     0.00800
C201        C  0.49787253  0.65800034  0.47893177    -0.24500
C202        C  0.60883616  0.55398735  0.50361379    -0.29100
C203        C  0.57967431  0.50044013  0.01784964     0.06500
C204        C  0.52639088  0.47618626  0.02573429    -0.27800
H205        H  0.64786233  0.65105226  0.47903874     0.11200
H206        H  0.59960901  0.69663267  0.46873913     0.12300
H207        H  0.42540059  0.43979644  0.03910849     0.11400
H208        H  0.37689229  0.48504570  0.02776986     0.10600
H209        H  0.37398529  0.56204710  0.00573358     0.16000
H210        H  0.51824168  0.69806926  0.46991257     0.11900
H211        H  0.65039250  0.57436094  0.49913821     0.14800
H212        H  0.50712387  0.43804799  0.03764887     0.14600
C213        C  0.92047114  0.26538600  0.54679565    -0.18300
C214        C  0.86753542  0.23702768  0.55440898    -0.20500
C215        C  0.83293298  0.25015449  0.53956846     0.20200
C216        C  0.85064760  0.29045685  0.01633494    -0.03400
C217        C  0.90398751  0.31828054  0.00835746    -0.06500
C218        C  0.93956841  0.30705788  0.52402935     0.20400
C219        C  0.92398875  0.36295483  0.98769405     0.18600
C220        C  0.89053827  0.37975607  0.97557720    -0.18000
C221        C  0.83772467  0.35254176  0.98382319    -0.20200
C222        C  0.81738783  0.30781410  0.00411218     0.20100
C223        C  0.76433213  0.27972611  0.01211090    -0.33200
C224        C  0.74415096  0.23364652  0.03109843     0.00800
C225        C  0.77955560  0.22079009  0.54616618    -0.24500
C226        C  0.99202374  0.33364842  0.51487331    -0.29100
C227        C  0.01093294  0.37416189  0.49109342     0.06500
C228        C  0.97687171  0.38953001  0.97915398    -0.27800
H229        H  0.94637013  0.25411839  0.55828017     0.11200
H230        H  0.85356875  0.20448148  0.57166350     0.12300
H231        H  0.90520657  0.41393195  0.95964104     0.11400
H232        H  0.81271325  0.36624932  0.97412635     0.10600
H233        H  0.73851439  0.29282406  0.00296169     0.16000
H234        H  0.76452724  0.18740427  0.56284440     0.11900
H235        H  0.01787520  0.32178826  0.52576162     0.14800
H236        H  0.99194063  0.42336818  0.96288656     0.14600
C237        C  0.41737375  0.90615221  0.00679537    -0.18300
C238        C  0.44422446  0.95908983  0.01595660    -0.20500
C239        C  0.49834841  0.98577288  0.02038178     0.20200
C240        C  0.52557318  0.95858601  0.01599613    -0.03400
C241        C  0.49841694  0.90505735  0.00713663    -0.06500
C242        C  0.44440170  0.87662555  0.50723761     0.20400
C243        C  0.52684729  0.88113104  0.49477190     0.18600
C244        C  0.57967895  0.90423656  0.00809902    -0.18000
C245        C  0.60663385  0.95735770  0.01648256    -0.20200
C246        C  0.57997284  0.98487111  0.02036934     0.20100
C247        C  0.60688135  0.03829096  0.02832784    -0.33200
C248        C  0.58020290  0.06590135  0.03242072     0.00800
C249        C  0.52578345  0.03917043  0.02889136    -0.24500
C250        C  0.41764026  0.82337851  0.49807120    -0.29100
C251        C  0.44522994  0.79864575  0.48807263     0.06500
C252        C  0.49976349  0.82775671  0.48666756    -0.27800
H253        H  0.37558947  0.87956753  0.52051829     0.11200
H254        H  0.42268125  0.97921785  0.01956186     0.12300
H255        H  0.60113256  0.88382898  0.00524564     0.11400
H256        H  0.64836259  0.97694693  0.01988260     0.10600
H257        H  0.64870952  0.05835593  0.03147167     0.16000
H258        H  0.50494432  0.06017241  0.03200259     0.11900
H259        H  0.37559377  0.80093701  0.49936574     0.14800
H260        H  0.52113493  0.80893446  0.47870025     0.14600
C261        C  0.57413548  0.66780928  0.24861703    -0.18300
C262        C  0.60045974  0.64118129  0.24127052    -0.20500
C263        C  0.57523164  0.58649977  0.24424046     0.20200
C264        C  0.52317816  0.55822431  0.25508484    -0.03400
C265        C  0.49680722  0.58523809  0.26297477    -0.06500
C266        C  0.52234066  0.64018295  0.25931258     0.20400
C267        C  0.44492646  0.55733910  0.27423602     0.18600
C268        C  0.42006673  0.50262343  0.27767814    -0.18000
C269        C  0.44604789  0.47570744  0.26941443    -0.20200
C270        C  0.49745839  0.50305787  0.25781229     0.20100
C271        C  0.52374521  0.47647630  0.24889220    -0.33200
C272        C  0.57576816  0.50481909  0.23839536     0.00800
C273        C  0.60122643  0.55967616  0.23639046    -0.24500
C274        C  0.49565195  0.66668911  0.26616327    -0.29100
C275        C  0.44382542  0.63937143  0.27708585     0.06500
C276        C  0.41882732  0.58467381  0.28153456    -0.27800
H277        H  0.59425606  0.71003341  0.24584157     0.11200
H278        H  0.64045850  0.66333129  0.23299435     0.12300
H279        H  0.38038219  0.48059454  0.28645763     0.11400
H280        H  0.42589622  0.43347208  0.27206469     0.10600
H281        H  0.50429046  0.43415166  0.25070542     0.16000
H282        H  0.64128011  0.58151669  0.22809647     0.11900
H283        H  0.51555580  0.70889297  0.26315110     0.14800
H284        H  0.37892607  0.56334668  0.29002172     0.14600
C285        C  0.89233571  0.66280449  0.28444072    -0.18300
C286        C  0.83973034  0.63599652  0.27584258    -0.20500
C287        C  0.81669666  0.58534404  0.26244579     0.20200
C288        C  0.84667004  0.56111071  0.25798070    -0.03400
C289        C  0.89965435  0.58792202  0.26706620    -0.06500
C290        C  0.92261521  0.63921976  0.27999875     0.20400
C291        C  0.92978862  0.56374683  0.26277966     0.18600
C292        C  0.90674889  0.51328722  0.24903074    -0.18000
C293        C  0.85431430  0.48693565  0.23964850    -0.20200
C294        C  0.82389863  0.51042437  0.24408439     0.20100
C295        C  0.77131422  0.48441574  0.23461195    -0.33200
C296        C  0.74117903  0.50835306  0.23914869     0.00800
C297        C  0.76429598  0.55878201  0.25319501    -0.24500
C298        C  0.97561092  0.66633352  0.28785800    -0.29100
C299        C  0.00581193  0.64253510  0.28371093     0.06500
C300        C  0.98260493  0.59093188  0.27170863    -0.27800
H301        H  0.90941275  0.70210635  0.29444288     0.11200
H302        H  0.81713516  0.65507490  0.27940653     0.12300
H303        H  0.92952532  0.49454185  0.24504776     0.11400
H304        H  0.83761556  0.44830649  0.22868507     0.10600
H305        H  0.75386268  0.44552875  0.22388252     0.16000
H306        H  0.74168894  0.57791059  0.25658754     0.11900
H307        H  0.99344307  0.70601023  0.29740573     0.14800
H308        H  0.00603405  0.57269397  0.26834278     0.14600
C309        C  0.43424955  0.92381005  0.28185493    -0.18300
C310        C  0.46278419  0.97722564  0.27411300    -0.20500
C311        C  0.50716676  0.99698776  0.25401933     0.20200
C312        C  0.52281258  0.96253993  0.24139866    -0.03400
C313        C  0.49354153  0.90853958  0.24878449    -0.06500
C314        C  0.44929271  0.88914535  0.26934779     0.20400
C315        C  0.50918114  0.87418659  0.23612143     0.18600
C316        C  0.55350978  0.89387089  0.21596447    -0.18000
C317        C  0.58289664  0.94746045  0.20899259    -0.20200
C318        C  0.56812468  0.98214418  0.22179838     0.20100
C319        C  0.59802088  0.03611409  0.21557849    -0.33200
C320        C  0.58226593  0.07032290  0.22785220     0.00800
C321        C  0.53656853  0.05063740  0.24663312    -0.24500
C322        C  0.42174771  0.83574943  0.27778971    -0.29100
C323        C  0.43809223  0.80152151  0.26608998     0.06500
C324        C  0.48114768  0.82099273  0.24458329    -0.27800
H325        H  0.40061697  0.90967638  0.29784469     0.11200
H326        H  0.45044493  0.00319849  0.28415785     0.12300
H327        H  0.56594430  0.86790824  0.20601565     0.11400
H328        H  0.61735201  0.96182421  0.19374761     0.10600
H329        H  0.63315055  0.05154258  0.20085149     0.16000
H330        H  0.52470372  0.07733941  0.25611058     0.11900
H331        H  0.38863203  0.82129746  0.29428789     0.14800
H332        H  0.49403016  0.79508905  0.23515730     0.14600
C333        C  0.90281586  0.38947273  0.27585230    -0.18300
C334        C  0.84999656  0.36330228  0.26736241    -0.20500
C335        C  0.82599964  0.31251204  0.25405723     0.20200
C336        C  0.85542316  0.28752719  0.24985692    -0.03400
C337        C  0.90889929  0.31422704  0.25799292    -0.06500
C338        C  0.93273328  0.36551825  0.27094103     0.20400
C339        C  0.93842431  0.28952779  0.25321296     0.18600
C340        C  0.91412324  0.23814309  0.24085442    -0.18000
C341        C  0.86105732  0.21145158  0.23323544    -0.20200
C342        C  0.83145522  0.23584582  0.23752150     0.20100
C343        C  0.77838545  0.20953554  0.22954942    -0.33200
C344        C  0.74912262  0.23460227  0.23279164     0.00800
C345        C  0.77316053  0.28617696  0.24497919    -0.24500
C346        C  0.98593604  0.39182017  0.27892942    -0.29100
C347        C  0.01588488  0.36765550  0.27401344     0.06500
C348        C  0.99163790  0.31645220  0.26101480    -0.27800
H349        H  0.92030042  0.42848442  0.28630209     0.11200
H350        H  0.82781605  0.38266633  0.27139850     0.12300
H351        H  0.93615554  0.21852196  0.23715290     0.11400
H352        H  0.84320175  0.17175204  0.22378974     0.10600
H353        H  0.75998476  0.16976636  0.22009285     0.16000
H354        H  0.75053285  0.30535146  0.24790415     0.11900
H355        H  0.00399210  0.43121384  0.28887414     0.14800
H356        H  0.01399250  0.29715099  0.25730562     0.14600
C357        C  0.33302235  0.96245670  0.24754610    -0.18300
C358        C  0.30510427  0.90978719  0.25717642    -0.20500
C359        C  0.25213186  0.88603339  0.26505529     0.20200
C360        C  0.22681550  0.91543749  0.26282877    -0.03400
C361        C  0.25513452  0.96874644  0.25355355    -0.06500
C362        C  0.30854736  0.99241007  0.24591750     0.20400
C363        C  0.23003827  0.99837888  0.25210011     0.18600
C364        C  0.17676130  0.97434902  0.25913739    -0.18000
C365        C  0.14854461  0.92134754  0.26786506    -0.20200
C366        C  0.17326136  0.89164973  0.26995523     0.20100
C367        C  0.14540023  0.83861826  0.27906522    -0.33200
C368        C  0.17057365  0.80928810  0.28181966     0.00800
C369        C  0.22399544  0.83335282  0.27496019    -0.24500
C370        C  0.33656807  0.04565019  0.23706896    -0.29100
C371        C  0.31203212  0.07567915  0.23650908     0.06500
C372        C  0.25869353  0.05161172  0.24385718    -0.27800
H373        H  0.37383629  0.97985928  0.24152585     0.11200
H374        H  0.32489329  0.88751578  0.25835058     0.12300
H375        H  0.15692143  0.99659138  0.25795658     0.11400
H376        H  0.10746205  0.90367078  0.27319955     0.10600
H377        H  0.10424342  0.82032339  0.28443003     0.16000
H378        H  0.24344702  0.81075587  0.27667760     0.11900
H379        H  0.37762645  0.06396750  0.23137990     0.14800
H380        H  0.23926534  0.07429141  0.24294655     0.14600
C381        C  0.30701570  0.40229705  0.23387336    -0.18300
C382        C  0.33456967  0.37656409  0.22674454    -0.20500
C383        C  0.31731957  0.32578064  0.23885354     0.20200
C384        C  0.27236825  0.30121010  0.25890287    -0.03400
C385        C  0.24404056  0.32669410  0.26555758    -0.06500
C386        C  0.26130518  0.37743243  0.25286488     0.20400
C387        C  0.19780462  0.30086610  0.28435460     0.18600
C388        C  0.18163435  0.25106116  0.29761148    -0.18000
C389        C  0.21009394  0.22621339  0.29145420    -0.20200
C390        C  0.25484525  0.25053991  0.27163199     0.20100
C391        C  0.28123602  0.22417499  0.26349146    -0.33200
C392        C  0.32447844  0.24694731  0.24209951     0.00800
C393        C  0.34316055  0.29847600  0.23053216    -0.24500
C394        C  0.23203671  0.40187207  0.25899639    -0.29100
C395        C  0.18491168  0.37520017  0.27650257     0.06500
C396        C  0.16819570  0.32498942  0.28923758    -0.27800
H397        H  0.32101521  0.44133122  0.22407982     0.11200
H398        H  0.36917989  0.39625948  0.21151212     0.12300
H399        H  0.14657727  0.23102644  0.31242540     0.11400
H400        H  0.19641179  0.18739624  0.30157224     0.10600
H401        H  0.26671257  0.18487774  0.27304873     0.16000
H402        H  0.37674278  0.31673788  0.21432205     0.11900
H403        H  0.24506712  0.44092037  0.24951025     0.14800
H404        H  0.13233930  0.30502038  0.30334992     0.14600
C405        C  0.34516255  0.21577439  0.72817428     0.79700
N406        N  0.38699195  0.23589038  0.70762395    -0.78600
C407        C  0.40705780  0.20568546  0.69760530     0.82200
N408        N  0.38461109  0.15488891  0.70773084    -0.78500
C409        C  0.34219357  0.13417692  0.72775302     0.82300
N410        N  0.32304441  0.16492010  0.73775619    -0.80200
C411        C  0.06972357  0.39615983  0.78370769     0.79700
N412        N  0.09132521  0.44048731  0.80244469    -0.78600
C413        C  0.14251598  0.46493312  0.81094105     0.82200
N414        N  0.17231551  0.44493195  0.80058131    -0.78500
C415        C  0.15112389  0.40050648  0.78212740     0.82300
N416        N  0.09975096  0.37584245  0.77420553    -0.80200
C417        C  0.69012221  0.20732879  0.72650223     0.79700
N418        N  0.66919064  0.23191780  0.70912140    -0.78600
C419        C  0.61880193  0.20459789  0.69877635     0.82200
N420        N  0.58930219  0.15287420  0.70626128    -0.78500
C421        C  0.60975907  0.12821856  0.72365500     0.82300
N422        N  0.66036675  0.15525730  0.73317057    -0.80200
C423        C  0.60558492  0.47700057  0.73258270     0.79700
N424        N  0.58536828  0.43550590  0.71145770    -0.78600
C425        C  0.61554226  0.41620140  0.70029836     0.82200
N426        N  0.66589472  0.43847082  0.71047339    -0.78500
C427        C  0.68616136  0.47959123  0.73191404     0.82300
N428        N  0.65582295  0.49877051  0.74244747    -0.80200
C429        C  0.42109708  0.67078963  0.78898281     0.79700
N430        N  0.37786789  0.65011682  0.80820018    -0.78600
C431        C  0.35471935  0.67854333  0.81534530     0.82200
N432        N  0.37514066  0.72806714  0.80333435    -0.78500
C433        C  0.41840520  0.74920188  0.78402209     0.82300
N434        N  0.44114553  0.72034900  0.77716876    -0.80200
C435        C  0.06459343  0.67364435  0.78916248     0.79700
N436        N  0.09283200  0.72541799  0.78155359    -0.78600
C437        C  0.14411282  0.75386818  0.78947471     0.82200
N438        N  0.16664715  0.73046584  0.80634433    -0.78500
C439        C  0.13842909  0.67876325  0.81459259     0.82300
N440        N  0.08752421  0.65041879  0.80566373    -0.80200
O441        O  0.20172708  0.68563157  0.85277628    -0.82300
C442        C  0.15615577  0.50374665  0.92439927     0.97100
O443        O  0.13330626  0.52897568  0.91852964    -0.71400
O444        O  0.13335904  0.61661956  0.91022915    -0.75000
Al445      Al  0.14037735  0.57072949  0.88062588     1.49000
C446        C  0.16453098  0.65733224  0.92596347     0.92300
O447        O  0.29961712  0.68171952  0.91130055    -0.81200
O448        O  0.30014994  0.61636780  0.85437665    -0.74800
Al449      Al  0.24667217  0.67574272  0.88183191     1.90100
O450        O  0.28172437  0.60130381  0.92101152    -0.73800
O451        O  0.21129134  0.53173362  0.84209018    -0.73700
O452        O  0.19648429  0.51348887  0.90879045    -0.79400
O453        O  0.13247944  0.51725919  0.85081954    -0.77600
O454        O  0.21031140  0.60522059  0.88129191    -1.13700
O455        O  0.13609771  0.60713572  0.84278570    -0.72900
C456        C  0.16040363  0.65574242  0.83730831     0.97800
C457        C  0.30737079  0.64958228  0.92734766     0.94200
Al458      Al  0.24416035  0.56912902  0.88150093     1.55600
O459        O  0.21247750  0.68104122  0.91991583    -0.77500
C460        C  0.16343608  0.50763486  0.83535352     0.98400
C461        C  0.31106233  0.65743043  0.83862437     0.93300
O462        O  0.28651249  0.68113362  0.84368892    -0.82800
C463        C  0.61069233  0.12351101  0.53942489     0.79700
N464        N  0.66194274  0.15256200  0.53147308    -0.78600
C465        C  0.68978034  0.20418674  0.53925808     0.82200
N466        N  0.66682237  0.22679936  0.55592736    -0.78500
C467        C  0.61596296  0.19833703  0.56448559     0.82300
N468        N  0.58782805  0.14667466  0.55612973    -0.80200
C469        C  0.41409837  0.66075673  0.98023772     0.79700
N470        N  0.37001643  0.63960854  0.96160594    -0.78600
C471        C  0.34949844  0.66964117  0.95204022     0.82200
N472        N  0.37307758  0.72081712  0.96145979    -0.78500
C473        C  0.41691337  0.74203523  0.98034871     0.82300
N474        N  0.43756113  0.71195669  0.98909076    -0.80200
C475        C  0.61492361  0.47894420  0.52765852     0.79700
N476        N  0.66532303  0.50058293  0.51813010    -0.78600
C477        C  0.69499520  0.48030680  0.52863846     0.82200
N478        N  0.67402620  0.43811916  0.54929014    -0.78500
C479        C  0.62389525  0.41662522  0.55940600     0.82300
N480        N  0.59466389  0.43724542  0.54863646    -0.80200
C481        C  0.07176528  0.67167432  0.97901112     0.79700
N482        N  0.09334390  0.64988415  0.95992815    -0.78600
C483        C  0.14375257  0.67889592  0.95015981     0.82200
N484        N  0.17248527  0.73001954  0.95933439    -0.78500
C485        C  0.15109659  0.75221944  0.97830849     0.82300
N486        N  0.10069734  0.72278118  0.98778450    -0.80200
C487        C  0.34365861  0.13654010  0.53115906     0.79700
N488        N  0.38778523  0.15926520  0.54963409    -0.78600
C489        C  0.40959777  0.21019022  0.55911808     0.82200
N490        N  0.38717259  0.23860697  0.54982851    -0.78500
C491        C  0.34263714  0.21582736  0.53158093     0.82300
N492        N  0.32063496  0.16462788  0.52288473    -0.80200
C493        C  0.06516411  0.39774006  0.98049332     0.79700
N494        N  0.09497574  0.37721536  0.99005013    -0.78600
C495        C  0.14469541  0.39800125  0.97941477     0.82200
N496        N  0.16460205  0.43988643  0.95857107    -0.78500
C497        C  0.13533140  0.46110226  0.94886636     0.82300
N498        N  0.08562357  0.43987417  0.95978604    -0.80200
O499        O  0.62571276  0.35041771  0.59165122    -0.82300
C500        C  0.44924836  0.22611105  0.67318092     0.97100
O501        O  0.45937858  0.26654539  0.65684559    -0.71400
O502        O  0.54798099  0.35124806  0.66763027    -0.75000
Al503      Al  0.51506477  0.31276114  0.62874399     1.49000
C504        C  0.59561124  0.37522201  0.67469369     0.92300
O505        O  0.62260999  0.27626097  0.66948626    -0.81200
O506        O  0.54634668  0.19936066  0.59191358    -0.74800
Al507      Al  0.61870774  0.31081922  0.63055101     1.90100
O508        O  0.55768830  0.19745901  0.65913026    -0.73800
O509        O  0.45953689  0.19945641  0.60027099    -0.73700
O510        O  0.47332209  0.20203332  0.66783582    -0.79400
O511        O  0.47699097  0.27947350  0.58969063    -0.77600
O512        O  0.54881649  0.27656279  0.62967106    -1.13700
O513        O  0.56294162  0.36703753  0.60044923    -0.72900
C514        C  0.60296287  0.37544205  0.58484625     0.97800
C515        C  0.59834884  0.22773141  0.67510876     0.94200
Al516      Al  0.51252711  0.20615648  0.62980063     1.55600
O517        O  0.62685750  0.36593437  0.65923309    -0.77500
C518        C  0.45159795  0.23110477  0.58380944     0.98400
C519        C  0.59450748  0.22175423  0.58689226     0.93300
O520        O  0.62554086  0.26294298  0.60238778    -0.82800
C521        C  0.33657310  0.36812051  0.48535516    -0.18300
C522        C  0.30820106  0.39251016  0.47683533    -0.20500
C523        C  0.25512562  0.36872019  0.48452252     0.20200
C524        C  0.23032389  0.31969866  0.50076180    -0.03400
C525        C  0.25876620  0.29477963  0.50895731    -0.06500
C526        C  0.31231114  0.31933594  0.50150004     0.20400
C527        C  0.23203788  0.24520796  0.02722039     0.18600
C528        C  0.17886431  0.22166398  0.03431954    -0.18000
C529        C  0.15189460  0.24788334  0.02726339    -0.20200
C530        C  0.17753315  0.29782625  0.01266398     0.20100
C531        C  0.15027916  0.32355404  0.00469513    -0.33200
C532        C  0.17531917  0.37294087  0.98906434     0.00800
C533        C  0.22639166  0.39296089  0.47616226    -0.24500
C534        C  0.34030776  0.29424288  0.50989059    -0.29100
C535        C  0.31476807  0.24412793  0.52437476     0.06500
C536        C  0.25905771  0.21875287  0.03371891    -0.27800
H537        H  0.37741311  0.38721406  0.47903659     0.11200
H538        H  0.32782772  0.43006095  0.46426728     0.12300
H539        H  0.15808727  0.18287766  0.04525756     0.11400
H540        H  0.11076938  0.22881870  0.03290121     0.10600
H541        H  0.10906276  0.30435934  0.01011180     0.16000
H542        H  0.24558166  0.43056632  0.46363632     0.11900
H543        H  0.38139360  0.31281534  0.50428201     0.14800
H544        H  0.23864346  0.17958075  0.04420659     0.14600
C545        C  0.33806178  0.98062600  0.98228186    -0.18300
C546        C  0.31142311  0.92720743  0.97429664    -0.20500
C547        C  0.25953513  0.89476404  0.98407114     0.20200
C548        C  0.23891605  0.91816445  0.50235615    -0.03400
C549        C  0.26539916  0.97229595  0.50953933    -0.06500
C550        C  0.31304957  0.00265818  0.99982686     0.20400
C551        C  0.23776861  0.99547641  0.52255117     0.18600
C552        C  0.18443046  0.96445954  0.52890467    -0.18000
C553        C  0.15841397  0.91082496  0.52222842    -0.20200
C554        C  0.18524047  0.88745268  0.50882863     0.20100
C555        C  0.15897776  0.83393416  0.50152927    -0.33200
C556        C  0.18058360  0.80878811  0.98664306     0.00800
C557        C  0.23268451  0.84091588  0.97673765    -0.24500
C558        C  0.34528205  0.05702301  0.51115028    -0.29100
C559        C  0.31745212  0.08021315  0.52345687     0.06500
C560        C  0.26383459  0.04930829  0.52894419    -0.27800
H561        H  0.37813613  0.00472551  0.97464277     0.11200
H562        H  0.33150835  0.91122629  0.96054085     0.12300
H563        H  0.16280641  0.98169995  0.53902935     0.11400
H564        H  0.11715623  0.88765769  0.52731862     0.10600
H565        H  0.11763950  0.81096497  0.50644462     0.16000
H566        H  0.25234080  0.82416080  0.96329282     0.11900
H567        H  0.37990254  0.08093680  0.00161484     0.14800
H568        H  0.24256407  0.06714771  0.53881201     0.14600
C569        C  0.91305826  0.50746932  0.50374191    -0.18300
C570        C  0.85979982  0.48038928  0.51092542    -0.20500
C571        C  0.83203607  0.50713576  0.51258981     0.20200
C572        C  0.85837735  0.56182317  0.50728209    -0.03400
C573        C  0.91223354  0.58927175  0.50076994    -0.06500
C574        C  0.93963038  0.56190720  0.49860626     0.20400
C575        C  0.93450979  0.64165275  0.99434294     0.18600
C576        C  0.90631237  0.66793768  0.99390903    -0.18000
C577        C  0.85278565  0.64056263  0.99954154    -0.20200
C578        C  0.82674159  0.58659195  0.00613561     0.20100
C579        C  0.77317662  0.55909620  0.01209269    -0.33200
C580        C  0.75095868  0.50750292  0.52043179     0.00800
C581        C  0.77850971  0.48035704  0.51956271    -0.24500
C582        C  0.99301830  0.58953073  0.49130150    -0.29100
C583        C  0.01595288  0.64219381  0.98726853     0.06500
C584        C  0.98796113  0.66876021  0.98816544    -0.27800
H585        H  0.93352816  0.48590616  0.50239581     0.11200
H586        H  0.84027123  0.43849475  0.51509787     0.12300
H587        H  0.92562634  0.70967598  0.98896925     0.11400
H588        H  0.83178044  0.66165183  0.99888531     0.10600
H589        H  0.75190669  0.57995898  0.01153359     0.16000
H590        H  0.75822986  0.43846010  0.52399326     0.11900
H591        H  0.01411666  0.56865845  0.48920758     0.14800
H592        H  0.00761103  0.71051552  0.98309966     0.14600
C593        C  0.60127322  0.62579398  0.98135067    -0.18300
C594        C  0.57412376  0.65227555  0.97591793    -0.20500
C595        C  0.52138514  0.62873705  0.98427114     0.20200
C596        C  0.49910448  0.57985699  0.49638519    -0.03400
C597        C  0.52709408  0.55383567  0.50281051    -0.06500
C598        C  0.57628748  0.57560665  0.99559164     0.20400
C599        C  0.50135016  0.50256484  0.51595145     0.18600
C600        C  0.44769078  0.47753488  0.52206550    -0.18000
C601        C  0.41974524  0.50300571  0.51516006    -0.21200
C602        C  0.44504127  0.55420565  0.50233493     0.20100
C603        C  0.41755621  0.58051909  0.49568943    -0.33200
C604        C  0.44107718  0.63135603  0.98659716     0.00800
C605        C  0.49419863  0.65531739  0.97912832    -0.24500
C606        C  0.60390609  0.54976902  0.00219814    -0.29100
C607        C  0.58391965  0.50341718  0.51759753     0.06500
C608        C  0.52991578  0.47772445  0.52334348    -0.27800
H609        H  0.64206692  0.64487531  0.97477718     0.11200
H610        H  0.59440749  0.69123496  0.96521088     0.12300
H611        H  0.42733864  0.43827584  0.53234988     0.11400
H612        H  0.37844278  0.48287875  0.52022129     0.10600
H613        H  0.37605262  0.56105161  0.50003692     0.16000
H614        H  0.51418782  0.69453439  0.96870187     0.11900
H615        H  0.64488550  0.56902921  0.99603096     0.14800
H616        H  0.51015863  0.43862329  0.53391148     0.14600
C617        C  0.91690465  0.25636881  0.04112508    -0.18300
C618        C  0.86398277  0.22846397  0.04872620    -0.20500
C619        C  0.83052354  0.24491958  0.03623950     0.20200
C620        C  0.85199047  0.29312341  0.51746025    -0.03400
C621        C  0.90534914  0.32140073  0.50952512    -0.06500
C622        C  0.93712175  0.30095428  0.02073320     0.20400
C623        C  0.92421852  0.36323488  0.48657235     0.18600
C624        C  0.88973387  0.37714589  0.47237418    -0.18000
C625        C  0.83690448  0.34950160  0.48052847    -0.20200
C626        C  0.81760855  0.30725123  0.50285433     0.20100
C627        C  0.76448771  0.27841461  0.51053258    -0.33200
C628        C  0.74538529  0.23475919  0.53167534     0.00800
C629        C  0.77723218  0.21640827  0.04307519    -0.24500
C630        C  0.98975961  0.32796720  0.01213320    -0.29100
C631        C  0.01002709  0.37197734  0.99102150     0.06500
C632        C  0.97691472  0.38947513  0.47759326    -0.27800
H633        H  0.94196734  0.24270993  0.05089661     0.11200
H634        H  0.84915020  0.19381112  0.06423260     0.12300
H635        H  0.90355967  0.40921028  0.45473781     0.11400
H636        H  0.81105123  0.36082342  0.46910841     0.10600
H637        H  0.73780496  0.28906187  0.49955732     0.16000
H638        H  0.76143340  0.18109190  0.05806994     0.11900
H639        H  0.01476753  0.31397607  0.02155814     0.14800
H640        H  0.99099236  0.42073252  0.45933826     0.14600
C641        C  0.41754521  0.90135825  0.51848910    -0.18300
C642        C  0.44460957  0.95442505  0.52746002    -0.20500
C643        C  0.49902998  0.98388338  0.52513725     0.20200
C644        C  0.52641646  0.95934541  0.51398813    -0.03400
C645        C  0.49917869  0.90567951  0.50531369    -0.06500
C646        C  0.44410416  0.87883074  0.00214550     0.20400
C647        C  0.52567610  0.87784256  0.00327873     0.18600
C648        C  0.58120300  0.91037949  0.49254037    -0.18000
C649        C  0.60807118  0.96358472  0.50072237    -0.20200
C650        C  0.58106133  0.98836248  0.51151379     0.20100
C651        C  0.60789129  0.04166591  0.51984066    -0.33200
C652        C  0.58111932  0.06675994  0.53094158     0.00800
C653        C  0.52654556  0.03735627  0.53371479    -0.24500
C654        C  0.41753423  0.82571669  0.99285274    -0.29100
C655        C  0.44449715  0.79827358  0.98935357     0.06500
C656        C  0.49853103  0.82468580  0.99470712    -0.27800
H657        H  0.37562722  0.88641512  0.00358222     0.11200
H658        H  0.42293175  0.97246048  0.53618428     0.12300
H659        H  0.60297431  0.89210919  0.48439046     0.11400
H660        H  0.65003350  0.98533719  0.49869970     0.10600
H661        H  0.64987009  0.06351561  0.51781343     0.16000
H662        H  0.50540515  0.05611933  0.54219147     0.11900
H663        H  0.37585131  0.80552084  0.98895272     0.14800
H664        H  0.51970066  0.80398385  0.99177681     0.14600
C665        C  0.57866131  0.66782700  0.75622348    -0.18300
C666        C  0.60430086  0.64063386  0.74852181    -0.20500
C667        C  0.57759350  0.58572806  0.74932559     0.20200
C668        C  0.52457461  0.55771518  0.75810088    -0.03400
C669        C  0.49883754  0.58526484  0.76638189    -0.06500
C670        C  0.52602142  0.64053457  0.76513159     0.20400
C671        C  0.44602265  0.55762159  0.77573867     0.18600
C672        C  0.41945765  0.50257191  0.77660938    -0.18000
C673        C  0.44483403  0.47518367  0.76792607    -0.20200
C674        C  0.49736240  0.50234187  0.75849192     0.20100
C675        C  0.52334947  0.47539624  0.74954256    -0.33200
C676        C  0.57646434  0.50349132  0.74133296     0.00800
C677        C  0.60315074  0.55848401  0.74142853    -0.24500
C678        C  0.50017319  0.66773699  0.77260953    -0.29100
C679        C  0.44752370  0.64075020  0.78181373     0.06500
C680        C  0.42077718  0.58559257  0.78376073    -0.27800
H681        H  0.60002517  0.71024811  0.75522131     0.11200
H682        H  0.64503871  0.66258600  0.74175978     0.12300
H683        H  0.37894425  0.48066893  0.78380239     0.11400
H684        H  0.42341467  0.43276171  0.76868233     0.10600
H685        H  0.50276773  0.43294434  0.74959578     0.16000
H686        H  0.64396565  0.58024301  0.73473741     0.11900
H687        H  0.52131638  0.71017660  0.77143409     0.14800
H688        H  0.38016263  0.56445105  0.79080683     0.14600
C689        C  0.89250357  0.65913293  0.78931260    -0.18300
C690        C  0.83937850  0.63136694  0.78202300    -0.20500
C691        C  0.81699931  0.58218001  0.76655083     0.20200
C692        C  0.84824265  0.56039818  0.75866098    -0.03400
C693        C  0.90176063  0.58806977  0.76649880    -0.06500
C694        C  0.92401775  0.63791181  0.78156815     0.20400
C695        C  0.93307921  0.56618191  0.75889167     0.18600
C696        C  0.91080477  0.51745726  0.74282579    -0.18000
C697        C  0.85792394  0.49045935  0.73453913    -0.20200
C698        C  0.82621169  0.51138534  0.74252687     0.20100
C699        C  0.77313144  0.48465140  0.73417692    -0.33200
C700        C  0.74173573  0.50626064  0.74187323     0.00800
C701        C  0.76408889  0.55487046  0.75837818    -0.24500
C702        C  0.97743845  0.66579714  0.78843469    -0.29100
C703        C  0.00861458  0.64385856  0.78142514     0.06500
C704        C  0.98620424  0.59381028  0.76704200    -0.27800
H705        H  0.90897167  0.69726069  0.80096535     0.11200
H706        H  0.81585067  0.64864310  0.78818781     0.12300
H707        H  0.93447669  0.50057295  0.73622703     0.11400
H708        H  0.84187198  0.45332228  0.72166024     0.10600
H709        H  0.75641179  0.44722585  0.72153830     0.16000
H710        H  0.74056509  0.57225189  0.76432453     0.11900
H711        H  0.99473899  0.70429258  0.79974544     0.14800
H712        H  0.01041739  0.57708654  0.76145272     0.14600
C713        C  0.43170501  0.92343018  0.78389996    -0.18300
C714        C  0.45838602  0.97656829  0.77520860    -0.20500
C715        C  0.50332205  0.99728388  0.75555891     0.20200
C716        C  0.52098794  0.96387042  0.74401784    -0.03400
C717        C  0.49367099  0.91015936  0.75241247    -0.06500
C718        C  0.44921713  0.88997181  0.77281838     0.20400
C719        C  0.51165533  0.87699524  0.74104553     0.18600
C720        C  0.55597499  0.89740472  0.72085416    -0.18000
C721        C  0.58339817  0.95070105  0.71288007    -0.20200
C722        C  0.56668837  0.98434440  0.72475494     0.20100
C723        C  0.59545068  0.03825266  0.71827524    -0.33200
C724        C  0.57835391  0.07164522  0.73000379     0.00800
C725        C  0.53168597  0.05096417  0.74789021    -0.24500
C726        C  0.42384830  0.83703728  0.78241573    -0.29100
C727        C  0.44247395  0.80403694  0.77192250     0.06500
C728        C  0.48586309  0.82428149  0.75070912    -0.27800
H729        H  0.39767176  0.90861961  0.79957581     0.11200
H730        H  0.44434289  0.00167078  0.78434339     0.12300
H731        H  0.57004580  0.87232059  0.71175820     0.11400
H732        H  0.61807657  0.96573761  0.69779143     0.10600
H733        H  0.63112758  0.05437200  0.70406773     0.16000
H734        H  0.51856269  0.07698446  0.75677823     0.11900
H735        H  0.39038329  0.82196168  0.79865111     0.14800
H736        H  0.50044097  0.79932135  0.74219745     0.14600
C737        C  0.90296256  0.39447549  0.77119423    -0.18300
C738        C  0.84998615  0.36823174  0.76305442    -0.20500
C739        C  0.82448907  0.31551349  0.75317856     0.20200
C740        C  0.85257917  0.28876341  0.75204684    -0.03400
C741        C  0.90620678  0.31544541  0.75982066    -0.06500
C742        C  0.93154654  0.36859553  0.76938972     0.20400
C743        C  0.93434811  0.28882510  0.75813888     0.18600
C744        C  0.90857614  0.23568497  0.74921247    -0.18000
C745        C  0.85538441  0.20910112  0.74197362    -0.20200
C746        C  0.82710456  0.23529635  0.74321978     0.20100
C747        C  0.77387873  0.20898312  0.73564518    -0.33200
C748        C  0.74585446  0.23562240  0.73583631     0.00800
C749        C  0.77144633  0.28898695  0.74455928    -0.24500
C750        C  0.98485879  0.39476139  0.77721607    -0.29100
C751        C  0.01339746  0.36862591  0.77525944     0.06500
C752        C  0.98767670  0.31562514  0.76557766    -0.27800
H753        H  0.92157288  0.43497472  0.77905450     0.11200
H754        H  0.82876910  0.38899202  0.76482078     0.12300
H755        H  0.92954619  0.21460572  0.74792699     0.11400
H756        H  0.83638829  0.16803299  0.73523055     0.10600
H757        H  0.75445552  0.16790299  0.72878613     0.16000
H758        H  0.74991819  0.30957956  0.74506059     0.11900
H759        H  0.00417957  0.43557786  0.78456930     0.14800
H760        H  0.00898054  0.29486157  0.76429327     0.14600
C761        C  0.33526438  0.96392957  0.74423054    -0.18300
C762        C  0.30778127  0.91104792  0.75364922    -0.20500
C763        C  0.25534974  0.88725012  0.76305457     0.20200
C764        C  0.23028509  0.91700619  0.76267311    -0.03400
C765        C  0.25824687  0.97054845  0.75372461    -0.06500
C766        C  0.31102358  0.99418966  0.74443094     0.20400
C767        C  0.23330905  0.00036296  0.75410086     0.18600
C768        C  0.18061531  0.97642457  0.76272475    -0.18000
C769        C  0.15273996  0.92327528  0.77105073    -0.20200
C770        C  0.17723695  0.89329944  0.77121517     0.20100
C771        C  0.14953420  0.84003241  0.77974965    -0.33200
C772        C  0.17432045  0.81022188  0.78069708     0.00800
C773        C  0.22739884  0.83420667  0.77258395    -0.24500
C774        C  0.33850107  0.04758944  0.73560568    -0.29100
C775        C  0.31402358  0.07775196  0.73663432     0.06500
C776        C  0.26137660  0.05361976  0.74586668    -0.27800
H777        H  0.37556882  0.98123464  0.73687286     0.11200
H778        H  0.32744392  0.88862828  0.75337465     0.12300
H779        H  0.16089795  0.99882075  0.76298299     0.11400
H780        H  0.11206499  0.90566973  0.77753061     0.10600
H781        H  0.10873539  0.82187596  0.78612348     0.16000
H782        H  0.24657201  0.81127921  0.77295333     0.11900
H783        H  0.37901685  0.06579816  0.72845518     0.14800
H784        H  0.24181568  0.07617628  0.74626101     0.14600
C785        C  0.30374710  0.40271423  0.73153056    -0.18300
C786        C  0.33112462  0.37690970  0.72398985    -0.20500
C787        C  0.31338125  0.32563466  0.73538189     0.20200
C788        C  0.26777589  0.30043553  0.75479078    -0.03400
C789        C  0.23966726  0.32602629  0.76186986    -0.06500
C790        C  0.25773967  0.37748634  0.75022400     0.20400
C791        C  0.19308732  0.29977200  0.78028190     0.18600
C792        C  0.17598232  0.24916632  0.79244137    -0.18000
C793        C  0.20419301  0.22420637  0.78586528    -0.20200
C794        C  0.24963747  0.24921675  0.76673496     0.20100
C795        C  0.27644240  0.22320897  0.75879638    -0.33200
C796        C  0.32088109  0.24689981  0.73846054     0.00800
C797        C  0.33969476  0.29867693  0.72725200    -0.24500
C798        C  0.22910229  0.40235300  0.75726369    -0.29100
C799        C  0.18186266  0.37544889  0.77465123     0.06500
C800        C  0.16416251  0.32436273  0.78607716    -0.27800
H801        H  0.31830012  0.44224730  0.72243176     0.11200
H802        H  0.36612113  0.39703208  0.70918071     0.12300
H803        H  0.14060038  0.22875990  0.80685516     0.11400
H804        H  0.18995302  0.18488273  0.79531449     0.10600
H805        H  0.26156809  0.18360791  0.76792327     0.16000
H806        H  0.37405798  0.31759208  0.71177069     0.11900
H807        H  0.24280307  0.44200512  0.74866254     0.14800
H808        H  0.12817589  0.30412458  0.79997997     0.14600
loop_ 
_geom_bond_atom_site_label_1 
_geom_bond_atom_site_label_2 
_geom_bond_distance 
_geom_bond_site_symmetry_2 
_ccdc_geom_bond_type 
C1            N2   1.360       .  A
C1            N6   1.356       .  A
C1          C392   1.487       .  S
N2            C3   1.363       .  A
C3            N4   1.360       .  A
C3           C96   1.466       .  S
N4            C5   1.358       .  A
C5            N6   1.355       .  A
C5          C371   1.478       .  S
C7            N8   1.360       .  A
C7           N12   1.362       .  A
C7          C347   1.489       .  S
N8            C9   1.359       .  A
C9           N10   1.357       .  A
C9           C56   1.467       .  S
N10          C11   1.356       .  A
C11          N12   1.360       .  A
C11         C395   1.471       .  S
C13          N14   1.364       .  A
C13          N18   1.359       .  A
C13         C344   1.479       .  S
N14          C15   1.363       .  A
C15          N16   1.358       .  A
C15         C111   1.472       .  S
N16          C17   1.355       .  A
C17          N18   1.356       .  A
C17         C320   1.468       .  S
C19          N20   1.358       .  A
C19          N24   1.354       .  A
C19         C272   1.472       .  S
N20          C21   1.362       .  A
C21          N22   1.360       .  A
C21         C100   1.467       .  S
N22          C23   1.358       .  A
C23          N24   1.355       .  A
C23         C296   1.481       .  S
C25          N26   1.356       .  A
C25          N30   1.356       .  A
C25         C275   1.480       .  S
N26          C27   1.360       .  A
C27          N28   1.360       .  A
C27          C57   1.465       .  S
N28          C29   1.360       .  A
C29          N30   1.357       .  A
C29         C323   1.484       .  S
C31          N32   1.357       .  A
C31          N36   1.358       .  A
C31         C299   1.473       .  S
N32          C33   1.357       .  A
C33          N34   1.359       .  A
C33         C368   1.478       .  S
N34          C35   1.360       .  A
C35          N36   1.360       .  A
C35          C52   1.469       .  S
O37          C52   1.259       .  A
O37         Al45   1.907       .  S
C38          C93   1.467       .  S
C38          O48   1.257       .  A
C38          O39   1.258       .  A
O39         Al41   1.899       .  S
O40          C42   1.262       .  A
O40         Al41   1.906       .  S
Al41         O49   1.911       .  S
Al41         O51   1.895       .  S
Al41         O50   1.797       .  S
C42          C79   1.464       .  S
C42          O55   1.258       .  A
O43          C53   1.262       .  A
O43         Al45   1.912       .  S
O44          C57   1.259       .  A
O44         Al54   1.898       .  S
Al45         O58   1.899       .  S
Al45         O55   1.889       .  S
Al45         O50   1.798       .  S
O46          C53   1.260       .  A
O46         Al54   1.901       .  S
O47          C56   1.260       .  A
O47         Al54   1.893       .  S
O48         Al54   1.896       .  S
O49          C56   1.262       .  A
O50         Al54   1.795       .  S
O51          C52   1.258       .  A
C53          C67   1.472       .  S
C57          O58   1.259       .  A
C59          N60   1.359       .  A
C59          N64   1.361       .  A
C59         C248   1.481       .  S
N60          C61   1.356       .  A
C61          N62   1.354       .  A
C61         C224   1.466       .  S
N62          C63   1.357       .  A
C63          N64   1.360       .  A
C63         C115   1.464       .  S
C65          N66   1.360       .  A
C65          N70   1.358       .  A
C65         C200   1.477       .  S
N66          C67   1.362       .  A
C67          N68   1.362       .  A
N68          C69   1.359       .  A
C69          N70   1.357       .  A
C69         C251   1.479       .  S
C71          N72   1.359       .  A
C71          N76   1.357       .  A
C71         C203   1.486       .  S
N72          C73   1.360       .  A
C73          N74   1.359       .  A
C73         C176   1.480       .  S
N74          C75   1.358       .  A
C75          N76   1.359       .  A
C75         C110   1.465       .  S
C77          N78   1.355       .  A
C77          N82   1.356       .  A
C77         C179   1.476       .  S
N78          C79   1.358       .  A
C79          N80   1.362       .  A
N80          C81   1.360       .  A
C81          N82   1.358       .  A
C81         C152   1.486       .  S
C83          N84   1.357       .  A
C83          N88   1.356       .  A
C83         C155   1.469       .  S
N84          C85   1.359       .  A
C85          N86   1.360       .  A
C85         C114   1.466       .  S
N86          C87   1.358       .  A
C87          N88   1.357       .  A
C87         C131   1.472       .  S
C89          N90   1.359       .  A
C89          N94   1.361       .  A
C89         C227   1.484       .  S
N90          C91   1.357       .  A
C91          N92   1.357       .  A
C91         C128   1.485       .  S
N92          C93   1.359       .  A
C93          N94   1.359       .  A
O95         C110   1.258       .  A
O95        Al103   1.898       .  S
C96         O106   1.260       .  A
C96          O97   1.259       .  A
O97         Al99   1.900       .  S
O98         C100   1.257       .  A
O98         Al99   1.889       .  S
Al99        O107   1.892       .  S
Al99        O109   1.895       .  S
Al99        O108   1.799       .  S
C100        O113   1.261       .  A
O101        C111   1.259       .  A
O101       Al103   1.906       .  S
O102        C115   1.259       .  A
O102       Al112   1.895       .  S
Al103       O116   1.900       .  S
Al103       O113   1.908       .  S
Al103       O108   1.800       .  S
O104        C111   1.260       .  A
O104       Al112   1.901       .  S
O105        C114   1.259       .  A
O105       Al112   1.905       .  S
O106       Al112   1.898       .  S
O107        C114   1.257       .  A
O108       Al112   1.798       .  S
O109        C110   1.257       .  A
C115        O116   1.260       .  A
C117        C118   1.401       .  A
C117        C122   1.404   1_556  A
C117        H133   1.083       .  S
C118        C119   1.404       .  A
C118        H134   1.083       .  S
C119        C129   1.407       .  A
C119        C120   1.412   1_556  A
C120        C121   1.412       .  A
C120        C530   1.410       .  A
C121        C122   1.412       .  A
C121        C527   1.412       .  A
C122        C130   1.407       .  A
C123        C132   1.400       .  A
C123        C124   1.403       .  A
C123        C525   1.411       .  A
C124        C125   1.398       .  A
C124        H135   1.084       .  S
C125        C126   1.403       .  A
C125        H136   1.084       .  S
C126        C127   1.401       .  A
C126        C524   1.411       .  A
C127        C128   1.408       .  A
C127        H137   1.084       .  S
C128        C533   1.409       .  A
C129        C532   1.410       .  A
C129        H138   1.084       .  S
C130        C131   1.405       .  A
C130        H139   1.083       .  S
C131        C536   1.403       .  A
C132        C535   1.404       .  A
C132        H140   1.085       .  S
C141        C142   1.402       .  A
C141        C146   1.405   1_565  A
C141        H157   1.083   1_565  S
C142        C143   1.405       .  A
C142        H158   1.083       .  S
C143        C153   1.409       .  A
C143        C548   1.412       .  A
C144        C150   1.410       .  A
C144        C145   1.411       .  A
C144        C547   1.412   1_554  A
C145        C147   1.412       .  A
C145        C550   1.412   1_564  A
C146        C549   1.412   1_545  A
C146        C558   1.407       .  A
C147        C156   1.398   1_565  A
C147        C148   1.402       .  A
C148        C149   1.396       .  A
C148        H159   1.083       .  S
C149        C150   1.402       .  A
C149        H160   1.084       .  S
C150        C151   1.397       .  A
C151        C556   1.407   1_554  A
C151        H161   1.084       .  S
C152        C153   1.410       .  A
C152        C555   1.408       .  A
C153        H162   1.084       .  S
C154        C155   1.405       .  A
C154        C550   1.406   1_554  A
C154        H567   1.083       .  S
C155        C156   1.401       .  A
C156        H164   1.085       .  S
H163        C558   1.084       .  S
C165        C166   1.401       .  A
C165        C170   1.404       .  A
C165        H181   1.083       .  S
C166        C167   1.404       .  A
C166        H182   1.082       .  S
C167        C177   1.405       .  A
C167        C168   1.411       .  A
C168        C169   1.411       .  A
C168        C578   1.411       .  A
C169        C170   1.412       .  A
C169        C575   1.411   1_554  A
C170        C178   1.406   1_554  A
C171        C180   1.398       .  A
C171        C172   1.402       .  A
C171        C573   1.411       .  A
C172        C173   1.396       .  A
C172        H183   1.085       .  S
C173        C174   1.403       .  A
C173        H184   1.083       .  S
C174        C175   1.399       .  A
C174        C572   1.411       .  A
C175        C580   1.405       .  A
C175        H185   1.084       .  S
C176        C177   1.408       .  A
C176        C579   1.406       .  A
C177        H186   1.084       .  S
C178        C583   1.407   1_655  A
C178        H187   1.083   1_655  S
C179        C180   1.404   1_455  A
C179        C582   1.407   1_455  A
C180        H188   1.085   1_655  S
C189        C190   1.397       .  A
C189        C194   1.403       .  A
C189        H205   1.084       .  S
C190        C191   1.403       .  A
C190        H206   1.083       .  S
C191        C201   1.400       .  A
C191        C596   1.411       .  A
C192        C198   1.413   1_556  A
C192        C193   1.412   1_556  A
C192        C595   1.411       .  A
C193        C195   1.411       .  A
C193        C598   1.411   1_554  A
C194        C202   1.401       .  A
C194        C597   1.412       .  A
C195        C204   1.406       .  A
C195        C196   1.405       .  A
C196        C197   1.402       .  A
C196        H207   1.084       .  S
C197        C198   1.404       .  A
C197        H208   1.083       .  S
C198        C199   1.408   1_554  A
C199        C604   1.406       .  A
C199        H209   1.084   1_556  S
C200        C201   1.404       .  A
C200        C603   1.407       .  A
C201        H210   1.085       .  S
C202        C607   1.407       .  A
C202        H211   1.085       .  S
C203        C204   1.411       .  A
C203        C606   1.407       .  A
C204        H212   1.084       .  S
C213        C214   1.398       .  A
C213        C218   1.403       .  A
C213        H229   1.084       .  S
C214        C215   1.402       .  A
C214        H230   1.084       .  S
C215        C225   1.401       .  A
C215        C620   1.413       .  A
C216        C222   1.412       .  A
C216        C217   1.410       .  A
C216        C619   1.413       .  A
C217        C219   1.412   1_554  A
C217        C622   1.410       .  A
C218        C226   1.400       .  A
C218        C621   1.410       .  A
C219        C228   1.404       .  A
C219        C220   1.404       .  A
C220        C221   1.400       .  A
C220        H231   1.084       .  S
C221        C222   1.404   1_556  A
C221        H232   1.083       .  S
C222        C223   1.404       .  A
C223        C224   1.404       .  A
C223        H233   1.084       .  S
C224        C629   1.401       .  A
C225        C628   1.402       .  A
C225        H234   1.085       .  S
C226        C227   1.408   1_655  A
C226        H235   1.085   1_655  S
C227        C632   1.408   1_455  A
C228        C631   1.409   1_655  A
C228        H236   1.084       .  S
C237        C238   1.401       .  A
C237        C646   1.404       .  A
C237        H657   1.083       .  S
C238        C239   1.404       .  A
C238        H254   1.083       .  S
C239        C249   1.406   1_565  A
C239        C240   1.412       .  A
C240        C246   1.411       .  A
C240        C241   1.412       .  A
C241        C647   1.411       .  A
C241        C646   1.412       .  A
C242        C250   1.408       .  A
C242        C641   1.404       .  A
C242        C645   1.412       .  A
C243        C252   1.401       .  A
C243        C645   1.411       .  A
C243        C648   1.403       .  A
C244        C245   1.397       .  A
C244        C647   1.403       .  A
C244        H255   1.084       .  S
C245        C246   1.403       .  A
C245        H256   1.083       .  S
C246        C247   1.401   1_565  A
C247        C248   1.407       .  A
C247        H257   1.084       .  S
C248        C249   1.407       .  A
C249        H258   1.084       .  S
C250        C251   1.407       .  A
C250        H259   1.084       .  S
C251        C252   1.405       .  A
C252        H260   1.085       .  S
H253        C641   1.083       .  S
C261        C262   1.395       .  A
C261        C266   1.402       .  A
C261        H277   1.084       .  S
C262        C263   1.402       .  A
C262        H278   1.084       .  S
C263        C273   1.396       .  A
C263        C264   1.411       .  A
C264        C270   1.413       .  A
C264        C265   1.411       .  A
C265        C267   1.411       .  A
C265        C266   1.411       .  A
C266        C274   1.397       .  A
C267        C276   1.407       .  A
C267        C268   1.405       .  A
C268        C269   1.402       .  A
C268        H279   1.083       .  S
C269        C270   1.404       .  A
C269        H280   1.083       .  S
C270        C271   1.408       .  A
C271        C272   1.406       .  A
C271        H281   1.084       .  S
C272        C273   1.403       .  A
C273        H282   1.085       .  S
C274        C275   1.405       .  A
C274        H283   1.084       .  S
C275        C276   1.409       .  A
C276        H284   1.083       .  S
C285        C286   1.396       .  A
C285        C290   1.402       .  A
C285        H301   1.084       .  S
C286        C287   1.403       .  A
C286        H302   1.084       .  S
C287        C297   1.398       .  A
C287        C288   1.410       .  A
C288        C294   1.412       .  A
C288        C289   1.411       .  A
C289        C291   1.412       .  A
C289        C290   1.412       .  A
C290        C298   1.399       .  A
C291        C300   1.405       .  A
C291        C292   1.404       .  A
C292        C293   1.400       .  A
C292        H303   1.083       .  S
C293        C294   1.404       .  A
C293        H304   1.083       .  S
C294        C295   1.405       .  A
C295        C296   1.408       .  A
C295        H305   1.084       .  S
C296        C297   1.408       .  A
C297        H306   1.085       .  S
C298        C299   1.404   1_655  A
C298        H307   1.085       .  S
C299        C300   1.405   1_455  A
C300        H308   1.084   1_655  S
C309        C310   1.399       .  A
C309        C314   1.404       .  A
C309        H325   1.083       .  S
C310        C311   1.403       .  A
C310        H326   1.084   1_565  S
C311        C321   1.403   1_565  A
C311        C312   1.412       .  A
C312        C318   1.413       .  A
C312        C313   1.411       .  A
C313        C315   1.410       .  A
C313        C314   1.412       .  A
C314        C322   1.404       .  A
C315        C324   1.400       .  A
C315        C316   1.404       .  A
C316        C317   1.398       .  A
C316        H327   1.084       .  S
C317        C318   1.403       .  A
C317        H328   1.083       .  S
C318        C319   1.402   1_565  A
C319        C320   1.403       .  A
C319        H329   1.084       .  S
C320        C321   1.403       .  A
C321        H330   1.085       .  S
C322        C323   1.408       .  A
C322        H331   1.084       .  S
C323        C324   1.409       .  A
C324        H332   1.084       .  S
C333        C334   1.401       .  A
C333        C338   1.404       .  A
C333        H349   1.083       .  S
C334        C335   1.404       .  A
C334        H350   1.083       .  S
C335        C345   1.407       .  A
C335        C336   1.413       .  A
C336        C342   1.411       .  A
C336        C337   1.414       .  A
C337        C339   1.411       .  A
C337        C338   1.410       .  A
C338        C346   1.406       .  A
C339        C348   1.404       .  A
C339        C340   1.404       .  A
C340        C341   1.399       .  A
C340        H351   1.083       .  S
C341        C342   1.403       .  A
C341        H352   1.084       .  S
C342        C343   1.402       .  A
C343        C344   1.406       .  A
C343        H353   1.085       .  S
C344        C345   1.406       .  A
C345        H354   1.084       .  S
C346        C347   1.410   1_655  A
C346        H355   1.084   1_655  S
C347        C348   1.409   1_455  A
C348        H356   1.084   1_655  S
C357        C358   1.399       .  A
C357        C362   1.403       .  A
C357        H373   1.083       .  S
C358        C359   1.403       .  A
C358        H374   1.083       .  S
C359        C369   1.403       .  A
C359        C360   1.411       .  A
C360        C366   1.412       .  A
C360        C361   1.411       .  A
C361        C363   1.410       .  A
C361        C362   1.413       .  A
C362        C370   1.405   1_565  A
C363        C372   1.399   1_565  A
C363        C364   1.403       .  A
C364        C365   1.398       .  A
C364        H375   1.084       .  S
C365        C366   1.403       .  A
C365        H376   1.083       .  S
C366        C367   1.402       .  A
C367        C368   1.407       .  A
C367        H377   1.084       .  S
C368        C369   1.406       .  A
C369        H378   1.084       .  S
C370        C371   1.405       .  A
C370        H379   1.084       .  S
C371        C372   1.408       .  A
C372        H380   1.084       .  S
C381        C382   1.402       .  A
C381        C386   1.405       .  A
C381        H397   1.083       .  S
C382        C383   1.405       .  A
C382        H398   1.084       .  S
C383        C393   1.409       .  A
C383        C384   1.412       .  A
C384        C390   1.409       .  A
C384        C385   1.412       .  A
C385        C387   1.413       .  A
C385        C386   1.412       .  A
C386        C394   1.407       .  A
C387        C396   1.400       .  A
C387        C388   1.402       .  A
C388        C389   1.396       .  A
C388        H399   1.084       .  S
C389        C390   1.403       .  A
C389        H400   1.084       .  S
C390        C391   1.397       .  A
C391        C392   1.408       .  A
C391        H401   1.084       .  S
C392        C393   1.410       .  A
C393        H402   1.084       .  S
C394        C395   1.406       .  A
C394        H403   1.084       .  S
C395        C396   1.402       .  A
C396        H404   1.086       .  S
C405        N406   1.359       .  A
C405        N410   1.357       .  A
C405        C796   1.488       .  S
N406        C407   1.363       .  A
C407        N408   1.361       .  A
C407        C500   1.466       .  S
N408        C409   1.358       .  A
C409        N410   1.356       .  A
C409        C775   1.483       .  S
C411        N412   1.360       .  A
C411        N416   1.361       .  A
C411        C751   1.488       .  S
N412        C413   1.361       .  A
C413        N414   1.358       .  A
C413        C460   1.468       .  S
N414        C415   1.356       .  A
C415        N416   1.360       .  A
C415        C799   1.471       .  S
C417        N418   1.362       .  A
C417        N422   1.360       .  A
C417        C748   1.482       .  S
N418        C419   1.362       .  A
C419        N420   1.358       .  A
C419        C515   1.469       .  S
N420        C421   1.354       .  A
C421        N422   1.357       .  A
C421        C724   1.469       .  S
C423        N424   1.359       .  A
C423        N428   1.356       .  A
C423        C676   1.475       .  S
N424        C425   1.362       .  A
C425        N426   1.361       .  A
C425        C504   1.469       .  S
N426        C427   1.359       .  A
C427        N428   1.356       .  A
C427        C700   1.485       .  S
C429        N430   1.357       .  A
C429        N434   1.358       .  A
C429        C679   1.483       .  S
N430        C431   1.360       .  A
C431        N432   1.359       .  A
C431        C461   1.465       .  S
N432        C433   1.359       .  A
C433        N434   1.359       .  A
C433        C727   1.484       .  S
C435        N436   1.358       .  A
C435        N440   1.358       .  A
C435        C703   1.474       .  S
N436        C437   1.359       .  A
C437        N438   1.361       .  A
C437        C772   1.482       .  S
N438        C439   1.362       .  A
C439        N440   1.359       .  A
C439        C456   1.472       .  S
O441        C456   1.259       .  A
O441       Al449   1.904       .  S
C442        C497   1.467       .  S
C442        O452   1.255       .  A
C442        O443   1.259       .  A
O443       Al445   1.903       .  S
O444        C446   1.259       .  A
O444       Al445   1.896       .  S
Al445       O453   1.903       .  S
Al445       O455   1.902       .  S
Al445       O454   1.800       .  S
C446        C483   1.463       .  S
C446        O459   1.258       .  A
O447        C457   1.260       .  A
O447       Al449   1.906       .  S
O448        C461   1.257       .  A
O448       Al458   1.892       .  S
Al449       O462   1.900       .  S
Al449       O459   1.892       .  S
Al449       O454   1.800       .  S
O450        C457   1.259       .  A
O450       Al458   1.899       .  S
O451        C460   1.260       .  A
O451       Al458   1.898       .  S
O452       Al458   1.890       .  S
O453        C460   1.260       .  A
O454       Al458   1.799       .  S
O455        C456   1.260       .  A
C457        C471   1.469       .  S
C461        O462   1.259       .  A
C463        N464   1.361       .  A
C463        N468   1.364       .  A
C463        C652   1.489       .  S
N464        C465   1.356       .  A
C465        N466   1.353       .  A
C465        C628   1.465       .  S
N466        C467   1.356       .  A
C467        N468   1.363       .  A
C467        C519   1.467       .  S
C469        N470   1.358       .  A
C469        N474   1.356       .  A
C469        C604   1.472       .  S
N470        C471   1.361       .  A
C471        N472   1.362       .  A
N472        C473   1.359       .  A
C473        N474   1.356       .  A
C473        C655   1.481       .  S
C475        N476   1.358       .  A
C475        N480   1.357       .  A
C475        C607   1.486       .  S
N476        C477   1.360       .  A
C477        N478   1.359       .  A
C477        C580   1.479       .  S
N478        C479   1.359       .  A
C479        N480   1.359       .  A
C479        C514   1.466       .  S
C481        N482   1.356       .  A
C481        N486   1.355       .  A
C481        C583   1.475       .  S
N482        C483   1.360       .  A
C483        N484   1.360       .  A
N484        C485   1.359       .  A
C485        N486   1.357       .  A
C485        C556   1.483       .  S
C487        N488   1.356       .  A
C487        N492   1.357       .  A
C487        C559   1.472       .  S
N488        C489   1.359       .  A
C489        N490   1.361       .  A
C489        C518   1.466       .  S
N490        C491   1.359       .  A
C491        N492   1.357       .  A
C491        C535   1.473       .  S
C493        N494   1.358       .  A
C493        N498   1.359       .  A
C493        C631   1.483       .  S
N494        C495   1.357       .  A
C495        N496   1.358       .  A
C495        C532   1.486       .  S
N496        C497   1.361       .  A
C497        N498   1.359       .  A
O499        C514   1.258       .  A
O499       Al507   1.899       .  S
C500        O510   1.258       .  A
C500        O501   1.259       .  A
O501       Al503   1.902       .  S
O502        C504   1.257       .  A
O502       Al503   1.891       .  S
Al503       O511   1.895       .  S
Al503       O513   1.897       .  S
Al503       O512   1.800       .  S
C504        O517   1.261       .  A
O505        C515   1.259       .  A
O505       Al507   1.902       .  S
O506        C519   1.258       .  A
O506       Al516   1.896       .  S
Al507       O520   1.904       .  S
Al507       O517   1.911       .  S
Al507       O512   1.799       .  S
O508        C515   1.259       .  A
O508       Al516   1.898       .  S
O509        C518   1.260       .  A
O509       Al516   1.901       .  S
O510       Al516   1.894       .  S
O511        C518   1.258       .  A
O512       Al516   1.797       .  S
O513        C514   1.258       .  A
C519        O520   1.261       .  A
C521        C522   1.401       .  A
C521        C526   1.404       .  A
C521        H537   1.083       .  S
C522        C523   1.404       .  A
C522        H538   1.083       .  S
C523        C533   1.405       .  A
C523        C524   1.411       .  A
C524        C525   1.412       .  A
C525        C526   1.413       .  A
C526        C534   1.407       .  A
C527        C536   1.400       .  A
C527        C528   1.402       .  A
C528        C529   1.397       .  A
C528        H539   1.084       .  S
C529        C530   1.403       .  A
C529        H540   1.084       .  S
C530        C531   1.400       .  A
C531        C532   1.408   1_554  A
C531        H541   1.085       .  S
C533        H542   1.084       .  S
C534        C535   1.405       .  A
C534        H543   1.084       .  S
C536        H544   1.085       .  S
C545        C546   1.401       .  A
C545        C550   1.404   1_565  A
C545        H561   1.082   1_565  S
C546        C547   1.404       .  A
C546        H562   1.084       .  S
C547        C557   1.406       .  A
C548        C554   1.410       .  A
C548        C549   1.412       .  A
C549        C551   1.412       .  A
C551        C560   1.398   1_565  A
C551        C552   1.401       .  A
C552        C553   1.395       .  A
C552        H563   1.083       .  S
C553        C554   1.403       .  A
C553        H564   1.084       .  S
C554        C555   1.397       .  A
C555        H565   1.084       .  S
C556        C557   1.409       .  A
C557        H566   1.085       .  S
C558        C559   1.407       .  A
C559        C560   1.402       .  A
C560        H568   1.085       .  S
C569        C570   1.401       .  A
C569        C574   1.405       .  A
C569        H585   1.083       .  S
C570        C571   1.404       .  A
C570        H586   1.083       .  S
C571        C581   1.406       .  A
C571        C572   1.412       .  A
C572        C573   1.411       .  A
C573        C574   1.412       .  A
C574        C582   1.406       .  A
C575        C584   1.398       .  A
C575        C576   1.402       .  A
C576        C577   1.396       .  A
C576        H587   1.084       .  S
C577        C578   1.403   1_556  A
C577        H588   1.083       .  S
C578        C579   1.400       .  A
C579        H589   1.084       .  S
C580        C581   1.408       .  A
C581        H590   1.084       .  S
C582        H591   1.083   1_655  S
C583        C584   1.405   1_455  A
C584        H592   1.085   1_655  S
C593        C594   1.396       .  A
C593        C598   1.403       .  A
C593        H609   1.084       .  S
C594        C595   1.402       .  A
C594        H610   1.083       .  S
C595        C605   1.398       .  A
C596        C602   1.413       .  A
C596        C597   1.413       .  A
C597        C599   1.411       .  A
C598        C606   1.400   1_556  A
C599        C608   1.406       .  A
C599        C600   1.405       .  A
C600        C601   1.402       .  A
C600        H611   1.084       .  S
C601        C602   1.404       .  A
C601        H612   1.083       .  S
C602        C603   1.409       .  A
C603        H613   1.084       .  S
C604        C605   1.403       .  A
C605        H614   1.085       .  S
C606        H615   1.085   1_554  S
C607        C608   1.410       .  A
C608        H616   1.084       .  S
C617        C618   1.397       .  A
C617        C622   1.403       .  A
C617        H633   1.084       .  S
C618        C619   1.402       .  A
C618        H634   1.084       .  S
C619        C629   1.400       .  A
C620        C626   1.412       .  A
C620        C621   1.411       .  A
C621        C623   1.412       .  A
C622        C630   1.399       .  A
C623        C632   1.404       .  A
C623        C624   1.404       .  A
C624        C625   1.399       .  A
C624        H635   1.084       .  S
C625        C626   1.403       .  A
C625        H636   1.083       .  S
C626        C627   1.403       .  A
C627        C628   1.403       .  A
C627        H637   1.084       .  S
C629        H638   1.085       .  S
C630        C631   1.408   1_654  A
C630        H639   1.085   1_655  S
C632        H640   1.084       .  S
C641        C642   1.402       .  A
C642        C643   1.405       .  A
C642        H658   1.083       .  S
C643        C653   1.408   1_565  A
C643        C644   1.412       .  A
C644        C650   1.410       .  A
C644        C645   1.414       .  A
C646        C654   1.407   1_554  A
C647        C656   1.400   1_554  A
C648        C649   1.398       .  A
C648        H659   1.084       .  S
C649        C650   1.403       .  A
C649        H660   1.083       .  S
C650        C651   1.401   1_565  A
C651        C652   1.409       .  A
C651        H661   1.084       .  S
C652        C653   1.410       .  A
C653        H662   1.084       .  S
C654        C655   1.407       .  A
C654        H663   1.084       .  S
C655        C656   1.407       .  A
C656        H664   1.084       .  S
C665        C666   1.395       .  A
C665        C670   1.402       .  A
C665        H681   1.083       .  S
C666        C667   1.402       .  A
C666        H682   1.084       .  S
C667        C677   1.396       .  A
C667        C668   1.410       .  A
C668        C674   1.413       .  A
C668        C669   1.412       .  A
C669        C671   1.411       .  A
C669        C670   1.411       .  A
C670        C678   1.399       .  A
C671        C680   1.408       .  A
C671        C672   1.406       .  A
C672        C673   1.403       .  A
C672        H683   1.083       .  S
C673        C674   1.405       .  A
C673        H684   1.083       .  S
C674        C675   1.410       .  A
C675        C676   1.407       .  A
C675        H685   1.084       .  S
C676        C677   1.404       .  A
C677        H686   1.085       .  S
C678        C679   1.405       .  A
C678        H687   1.084       .  S
C679        C680   1.410       .  A
C680        H688   1.084       .  S
C689        C690   1.398       .  A
C689        C694   1.403       .  A
C689        H705   1.083       .  S
C690        C691   1.403       .  A
C690        H706   1.084       .  S
C691        C701   1.400       .  A
C691        C692   1.410       .  A
C692        C698   1.412       .  A
C692        C693   1.412       .  A
C693        C695   1.412       .  A
C693        C694   1.412       .  A
C694        C702   1.402       .  A
C695        C704   1.405       .  A
C695        C696   1.403       .  A
C696        C697   1.400       .  A
C696        H707   1.083       .  S
C697        C698   1.404       .  A
C697        H708   1.083       .  S
C698        C699   1.406       .  A
C699        C700   1.408       .  A
C699        H709   1.084       .  S
C700        C701   1.409       .  A
C701        H710   1.085       .  S
C702        C703   1.404   1_655  A
C702        H711   1.085       .  S
C703        C704   1.405   1_455  A
C704        H712   1.084   1_655  S
C713        C714   1.400       .  A
C713        C718   1.404       .  A
C713        H729   1.083       .  S
C714        C715   1.404       .  A
C714        H730   1.084   1_565  S
C715        C725   1.405   1_565  A
C715        C716   1.412       .  A
C716        C722   1.412       .  A
C716        C717   1.411       .  A
C717        C719   1.410       .  A
C717        C718   1.411       .  A
C718        C726   1.405       .  A
C719        C728   1.400       .  A
C719        C720   1.403       .  A
C720        C721   1.397       .  A
C720        H731   1.084       .  S
C721        C722   1.402       .  A
C721        H732   1.083       .  S
C722        C723   1.401   1_565  A
C723        C724   1.402       .  A
C723        H733   1.084       .  S
C724        C725   1.404       .  A
C725        H734   1.085       .  S
C726        C727   1.409       .  A
C726        H735   1.084       .  S
C727        C728   1.408       .  A
C728        H736   1.084       .  S
C737        C738   1.401       .  A
C737        C742   1.404       .  A
C737        H753   1.082       .  S
C738        C739   1.404       .  A
C738        H754   1.083       .  S
C739        C749   1.407       .  A
C739        C740   1.412       .  A
C740        C746   1.411       .  A
C740        C741   1.414       .  A
C741        C743   1.411       .  A
C741        C742   1.411       .  A
C742        C750   1.407       .  A
C743        C752   1.404       .  A
C743        C744   1.404       .  A
C744        C745   1.399       .  A
C744        H755   1.083       .  S
C745        C746   1.403       .  A
C745        H756   1.084       .  S
C746        C747   1.403       .  A
C747        C748   1.407       .  A
C747        H757   1.085       .  S
C748        C749   1.407       .  A
C749        H758   1.084       .  S
C750        C751   1.410   1_655  A
C750        H759   1.084   1_655  S
C751        C752   1.408   1_455  A
C752        H760   1.084   1_655  S
C761        C762   1.402       .  A
C761        C766   1.404       .  A
C761        H777   1.083       .  S
C762        C763   1.405       .  A
C762        H778   1.083       .  S
C763        C773   1.407       .  A
C763        C764   1.411       .  A
C764        C770   1.412       .  A
C764        C765   1.413       .  A
C765        C767   1.410   1_565  A
C765        C766   1.413       .  A
C766        C774   1.408   1_565  A
C767        C776   1.399       .  A
C767        C768   1.403   1_545  A
C768        C769   1.397       .  A
C768        H779   1.084       .  S
C769        C770   1.403       .  A
C769        H780   1.083       .  S
C770        C771   1.402       .  A
C771        C772   1.406       .  A
C771        H781   1.084       .  S
C772        C773   1.408       .  A
C773        H782   1.084       .  S
C774        C775   1.408       .  A
C774        H783   1.085       .  S
C775        C776   1.408       .  A
C776        H784   1.084       .  S
C785        C786   1.403       .  A
C785        C790   1.405       .  A
C785        H801   1.084       .  S
C786        C787   1.406       .  A
C786        H802   1.083       .  S
C787        C797   1.410       .  A
C787        C788   1.412       .  A
C788        C794   1.410       .  A
C788        C789   1.412       .  A
C789        C791   1.412       .  A
C789        C790   1.412       .  A
C790        C798   1.408       .  A
C791        C800   1.399       .  A
C791        C792   1.402       .  A
C792        C793   1.395       .  A
C792        H803   1.083       .  S
C793        C794   1.402       .  A
C793        H804   1.085       .  S
C794        C795   1.397       .  A
C795        C796   1.408       .  A
C795        H805   1.085       .  S
C796        C797   1.411       .  A
C797        H806   1.084       .  S
C798        C799   1.406       .  A
C798        H807   1.084       .  S
C799        C800   1.401       .  A
C800        H808   1.084       .  S
