geometry optimzed in LAMMPS
_audit_creation_date              2020-11-30 
_audit_creation_method            'lammps2cif' 
_symmetry_space_group_name_H-M    'P1' 
_symmetry_Int_Tables_number       1 
_symmetry_cell_setting            triclinic 
loop_ 
_symmetry_equiv_pos_as_xyz 
  x,y,z 
_cell_length_a                    52.0405203 
_cell_length_b                    51.90348281654579 
_cell_length_c                    25.186493054853536 
_cell_angle_alpha                 89.67699186206282 
_cell_angle_beta                  89.49841464708605 
_cell_angle_gamma                 89.95691249795308 
loop_ 
_atom_site_label 
_atom_site_type_symbol 
_atom_site_fract_x 
_atom_site_fract_y 
_atom_site_fract_z 
_atom_site_charge 
C1          C  0.97836614  0.88361777  0.74385414     0.80900
N2          N  0.97977199  0.85769521  0.74993082    -0.77400
C3          C  0.00268354  0.84515675  0.74827926     0.83400
N4          N  0.02444556  0.85853283  0.73851537    -0.77300
C5          C  0.02369712  0.88436034  0.73142531     0.83500
N6          N  0.00066625  0.89709008  0.73468578    -0.79100
C7          C  0.02379936  0.61441370  0.68519100     0.80900
N8          N  0.02385162  0.63971072  0.69904665    -0.77400
C9          C  0.00174827  0.65328970  0.70413706     0.83400
N10         N  0.97925472  0.64137279  0.69439586    -0.77300
C11         C  0.97876041  0.61602226  0.68103850     0.83500
N12         N  0.00104987  0.60241516  0.67644350    -0.79100
C13         C  0.52768435  0.88003144  0.71782470     0.80900
N14         N  0.50513621  0.89265658  0.72686259    -0.77400
C15         C  0.48230705  0.87998745  0.72092859     0.83400
N16         N  0.48199649  0.85524288  0.70380699    -0.77300
C17         C  0.50423035  0.84277432  0.69346740     0.83500
N18         N  0.52677434  0.85514849  0.70137224    -0.79100
C19         C  0.47647576  0.61280560  0.65780681     0.80900
N20         N  0.47812305  0.63879360  0.65063359    -0.77400
C21         C  0.50107037  0.65107127  0.64760575     0.83400
N22         N  0.52273476  0.63706199  0.65289954    -0.77300
C23         C  0.52165488  0.61104959  0.65976957     0.83500
N24         N  0.49849751  0.59882661  0.66241632    -0.79100
In25       In  0.25429508  0.96609446  0.70442276     1.36900
C26         C  0.20623314  0.94885806  0.70701160     0.78300
O27         O  0.24857905  0.96331638  0.79212524    -0.60200
O28         O  0.26263042  0.99880226  0.75959409    -0.51100
C29         C  0.30247234  0.94933618  0.70985572     0.70900
O30         O  0.28350367  0.93392527  0.70746896    -0.45900
C31         C  0.24981701  0.98154097  0.60456756     0.75600
O32         O  0.22547744  0.93367733  0.70718343    -0.57800
O33         O  0.24531773  0.99630133  0.64342833    -0.47900
O34         O  0.21196350  0.97247554  0.70663368    -0.54200
C35         C  0.25709958  0.98566284  0.80069275     0.85800
O36         O  0.29657400  0.97289660  0.70770635    -0.56100
O37         O  0.25879854  0.95972014  0.61674913    -0.59400
In38       In  0.24986211  0.52366184  0.69693584     1.36900
C39         C  0.20329399  0.54292499  0.69064847     0.78300
O40         O  0.25680020  0.52741571  0.61008828    -0.60200
O41         O  0.24072120  0.49210247  0.63875178    -0.51100
C42         C  0.29560166  0.54482489  0.69625114     0.70900
O43         O  0.27560462  0.55841199  0.70303434    -0.45900
C44         C  0.25411433  0.50554202  0.79480957     0.75600
O45         O  0.22294991  0.55732434  0.69069425    -0.57800
O46         O  0.26093142  0.49229593  0.75504359    -0.47900
O47         O  0.20789238  0.51913045  0.69580445    -0.54200
C48         C  0.24714045  0.50589137  0.59913267     0.85800
O49         O  0.29163703  0.52098719  0.69051320    -0.56100
O50         O  0.24320861  0.52654524  0.78399296    -0.59400
In51       In  0.75209253  0.97949832  0.74145319     1.36900
C52         C  0.70641327  0.95654597  0.74283612     0.78300
O53         O  0.75712191  0.97786305  0.82904785    -0.60200
O54         O  0.73859577  0.01093871  0.79665328    -0.51100
C55         C  0.79962377  0.96075255  0.74190999     0.70900
O56         O  0.78000621  0.94666204  0.73516074    -0.45900
C57         C  0.75560678  0.99846580  0.64343659     0.75600
O58         O  0.72694670  0.94389640  0.75017451    -0.57800
O59         O  0.76217287  0.01152846  0.68338021    -0.47900
O60         O  0.70970602  0.98033111  0.73446365    -0.54200
C61         C  0.74519603  0.99853000  0.83774231     0.85800
O62         O  0.79471741  0.98430546  0.74902636    -0.56100
O63         O  0.74595599  0.97680892  0.65410619    -0.59400
In64       In  0.75102620  0.53090705  0.65957729     1.36900
C65         C  0.70385173  0.54960917  0.65875687     0.78300
O66         O  0.74559036  0.53416693  0.57205446    -0.60200
O67         O  0.76089159  0.49892701  0.60186846    -0.51100
C68         C  0.79737813  0.55153070  0.66075997     0.70900
O69         O  0.77737746  0.56548630  0.66145149    -0.45900
C70         C  0.74694190  0.51280060  0.75819604     0.75600
O71         O  0.72316436  0.56447887  0.65667100    -0.57800
O72         O  0.74158670  0.49904200  0.71845171    -0.47900
O73         O  0.70924440  0.52589117  0.66039483    -0.54200
C74         C  0.75484864  0.51233796  0.56169788     0.85800
O75         O  0.79315047  0.52756250  0.65962734    -0.56100
O76         O  0.75610289  0.53463667  0.74716957    -0.59400
C77         C  0.36577781  0.76962775  0.91723375     0.80900
N78         N  0.35368431  0.74691890  0.92928435    -0.77400
C79         C  0.36758065  0.72459398  0.93363290     0.83400
N80         N  0.39331610  0.72508435  0.92533634    -0.77300
C81         C  0.40536490  0.74741476  0.91316985     0.83500
N82         N  0.39156327  0.76956165  0.90978028    -0.79100
C83         C  0.63682312  0.77883521  0.91055543     0.80900
N84         N  0.61088407  0.77864560  0.90585950    -0.77400
C85         C  0.59825696  0.75632977  0.89667304     0.83400
N86         N  0.61175215  0.73403002  0.89175107    -0.77300
C87         C  0.63770913  0.73373800  0.89581526     0.83500
N88         N  0.65023560  0.75623698  0.90676930    -0.79100
In89       In  0.71671763  0.00752499  0.98840526     1.36900
C90         C  0.69828900  0.05541479  0.99447541     0.78300
O91         O  0.71231518  0.99925043  0.07513086    -0.60200
O92         O  0.74765480  0.01559065  0.04786627    -0.51100
C93         C  0.69805653  0.95956838  0.98331026     0.70900
O94         O  0.68317906  0.97900079  0.98404465    -0.45900
C95         C  0.73679014  0.00524319  0.89152194     0.75600
O96         O  0.68388915  0.03569366  0.99176591    -0.57800
O97         O  0.74974112  0.99979760  0.93238874    -0.47900
O98         O  0.72200659  0.05044367  0.99247309    -0.54200
C99         C  0.73382869  0.00861769  0.08697977     0.85800
O100        O  0.72161811  0.96518891  0.98604520    -0.56100
O101        O  0.71452554  0.01384418  0.90058450    -0.59400
In102      In  0.27851782  0.49647241  0.94782782     1.36900
C103        C  0.29724443  0.54388318  0.94621174     0.78300
O104        O  0.28278526  0.48985895  0.86045052    -0.60200
O105        O  0.24743370  0.50547948  0.88908821    -0.51100
C106        C  0.29982045  0.45012423  0.95587273     0.70900
O107        O  0.31306997  0.47032147  0.96277612    -0.45900
C108        C  0.25701759  0.49242870  0.04316592     0.75600
O109        O  0.31152776  0.52412622  0.94193242    -0.57800
O110        O  0.24579864  0.48441760  0.00208489    -0.47900
O111        O  0.27359394  0.53906165  0.95130756    -0.54200
C112        C  0.26110509  0.49918903  0.84945137     0.85800
O113        O  0.27679730  0.45432686  0.94310400    -0.56100
O114        O  0.27780835  0.50415615  0.03465495    -0.59400
In115      In  0.72203784  0.50296325  0.91108192     1.36900
C116        C  0.70746448  0.55211375  0.90773193     0.78300
O117        O  0.72046708  0.50996928  0.99844667    -0.60200
O118        O  0.75171126  0.48776832  0.96841499    -0.51100
C119        C  0.69780199  0.45785126  0.91293134     0.70900
O120        O  0.68613616  0.47908900  0.92005749    -0.45900
C121        C  0.73981305  0.50597242  0.81285415     0.75600
O122        O  0.69146691  0.53363833  0.91068985    -0.57800
O123        O  0.75391667  0.51070686  0.85242409    -0.47900
O124        O  0.73075405  0.54528204  0.90785407    -0.54200
C125        C  0.73967431  0.49614399  0.00868154     0.85800
O126        O  0.72144575  0.46002055  0.90222962    -0.56100
O127        O  0.71758143  0.49779856  0.82397550    -0.59400
C128        C  0.36035557  0.27029772  0.03823507     0.80900
N129        N  0.35023009  0.24694575  0.02510813    -0.77400
C130        C  0.36435781  0.22505207  0.03248928     0.83400
N131        N  0.38890242  0.22696161  0.05077306    -0.77300
C132        C  0.39911406  0.25014297  0.06305820     0.83500
N133        N  0.38463703  0.27158199  0.05656562    -0.79100
C134        C  0.62749580  0.23652493  0.01496024     0.80900
N135        N  0.63958318  0.25917781  0.00264563    -0.77400
C136        C  0.62634352  0.28183763  0.00688055     0.83400
N137        N  0.60125907  0.28137060  0.02300886    -0.77300
C138        C  0.58917682  0.25889813  0.03446847     0.83500
N139        N  0.60246628  0.23670963  0.03064378    -0.79100
In140      In  0.27938353  0.99909756  0.95278403     1.36900
C141        C  0.30245637  0.04481559  0.95457121     0.78300
O142        O  0.28478375  0.00341767  0.86527603    -0.60200
O143        O  0.24859748  0.98958707  0.89420489    -0.51100
C144        C  0.29582503  0.95064105  0.95079079     0.70900
O145        O  0.31112140  0.96975222  0.94946156    -0.45900
C146        C  0.25888802  0.00418465  0.04916217     0.75600
O147        O  0.31401069  0.02412982  0.96712443    -0.57800
O148        O  0.24774014  0.01278000  0.00819020    -0.47900
O149        O  0.27969606  0.04180784  0.93890321    -0.54200
C150        C  0.26311254  0.99402687  0.85455198     0.85800
O151        O  0.27239410  0.95661111  0.95477408    -0.56100
O152        O  0.27911227  0.99161204  0.04011514    -0.59400
In153      In  0.24524223  0.46941085  0.19657677     1.36900
C154        C  0.29337768  0.45299523  0.19880441     0.78300
O155        O  0.24114083  0.46349718  0.10917732    -0.60200
O156        O  0.25245986  0.50064946  0.13627397    -0.51100
C157        C  0.19813006  0.45102621  0.20782354     0.70900
O158        O  0.21747911  0.43638555  0.20120880    -0.45900
C159        C  0.24344073  0.48861668  0.29308081     0.75600
O160        O  0.27485772  0.43704252  0.19837580    -0.57800
O161        O  0.23665472  0.50177721  0.25303825    -0.47900
O162        O  0.28672290  0.47639207  0.19751335    -0.54200
C163        C  0.24892714  0.48582044  0.09730526     0.85800
O164        O  0.20300383  0.47481999  0.20613525    -0.56100
O165        O  0.25263892  0.46667100  0.28306027    -0.59400
C166        C  0.51644047  0.12172509  0.23272697     0.80900
N167        N  0.49424956  0.10829758  0.22570762    -0.77400
C168        C  0.47122216  0.12051573  0.23240917     0.83400
N169        N  0.47062998  0.14587019  0.24595459    -0.77300
C170        C  0.49251714  0.15915052  0.25377168     0.83500
N171        N  0.51530826  0.14688987  0.24707530    -0.79100
C172        C  0.47431743  0.39195993  0.23695060     0.80900
N173        N  0.49722495  0.40281468  0.22382584    -0.77400
C174        C  0.51915921  0.38867309  0.22741289     0.83400
N175        N  0.51803098  0.36355761  0.24356374    -0.77300
C176        C  0.49530128  0.35263881  0.25741275     0.83500
N177        N  0.47359274  0.36699185  0.25367858    -0.79100
C178        C  0.97322631  0.11236876  0.23265473     0.80900
N179        N  0.99490911  0.09777194  0.23253535    -0.77400
C180        C  0.01825781  0.10960643  0.22882088     0.83400
N181        N  0.01997467  0.13574513  0.22626203    -0.77300
C182        C  0.99844417  0.15025377  0.22563556     0.83500
N183        N  0.97534226  0.13835181  0.22883709    -0.79100
C184        C  0.01723966  0.38336779  0.21520811     0.80900
N185        N  0.01613735  0.35724693  0.21851798    -0.77400
C186        C  0.99416235  0.34401070  0.20890170     0.83400
N187        N  0.97281593  0.35731121  0.19559469    -0.77300
C188        C  0.97354983  0.38341286  0.19184687     0.83500
N189        N  0.99561853  0.39651546  0.20242342    -0.79100
In190      In  0.24623985  0.02699034  0.20334834     1.36900
C191        C  0.29217661  0.04821074  0.20811823     0.78300
O192        O  0.25262714  0.02830576  0.29082884    -0.60200
O193        O  0.23793025  0.99344185  0.25923354    -0.51100
C194        C  0.19895888  0.04565196  0.20663474     0.70900
O195        O  0.21829481  0.06047487  0.20666390    -0.45900
C196        C  0.25118175  0.01061719  0.10371267     0.75600
O197        O  0.27191397  0.06175042  0.21015953    -0.57800
O198        O  0.25650223  0.99646876  0.14321675    -0.47900
O199        O  0.28851804  0.02432700  0.20256291    -0.54200
C200        C  0.24416796  0.00602657  0.30008373     0.85800
O201        O  0.20434032  0.02195834  0.20386457    -0.56100
O202        O  0.24156447  0.03217903  0.11522716    -0.59400
In203      In  0.74307968  0.03215060  0.24033380     1.36900
C204        C  0.78954327  0.05156779  0.24381343     0.78300
O205        O  0.73681169  0.03635596  0.32751971    -0.60200
O206        O  0.75263170  0.00091134  0.29995898    -0.51100
C207        C  0.69712339  0.05296329  0.23570630     0.70900
O208        O  0.71721358  0.06668288  0.23231265    -0.45900
C209        C  0.74028830  0.01445371  0.14207867     0.75600
O210        O  0.76989291  0.06598828  0.24603306    -0.57800
O211        O  0.73282963  0.00102791  0.18147547    -0.47900
O212        O  0.78488541  0.02778929  0.23903441    -0.54200
C213        C  0.74702042  0.01509915  0.33920605     0.85800
O214        O  0.70106325  0.02911547  0.24226277    -0.56100
O215        O  0.75111930  0.03533037  0.15360635    -0.59400
In216      In  0.74721953  0.47002625  0.16226543     1.36900
C217        C  0.79397496  0.45017684  0.16752108     0.78300
O218        O  0.75298533  0.46569802  0.07425829    -0.60200
O219        O  0.73963073  0.50185492  0.10316702    -0.51100
C220        C  0.70000074  0.45125076  0.16795730     0.70900
O221        O  0.71952922  0.43662410  0.16794206    -0.45900
C222        C  0.75123770  0.49002538  0.25828237     0.75600
O223        O  0.77431695  0.43574576  0.16857930    -0.57800
O224        O  0.75700487  0.50287267  0.21701995    -0.47900
O225        O  0.78912669  0.47385725  0.16193289    -0.54200
C226        C  0.74516429  0.48810407  0.06334519     0.85800
O227        O  0.70494659  0.47498389  0.16331784    -0.56100
O228        O  0.74151815  0.46827235  0.24988976    -0.59400
C229        C  0.12646648  0.76700206  0.49953200     0.80900
N230        N  0.10038850  0.76568924  0.50347813    -0.77400
C231        C  0.08753583  0.74290276  0.50221544     0.83400
N232        N  0.10111979  0.72096508  0.49640377    -0.77300
C233        C  0.12712671  0.72172189  0.49257223     0.83500
N234        N  0.13993596  0.74466987  0.49445865    -0.79100
C235        C  0.85601818  0.77644602  0.46991562     0.80900
N236        N  0.88199815  0.77548802  0.47452356    -0.77400
C237        C  0.89495867  0.75337349  0.46433379     0.83400
N238        N  0.88169681  0.73217128  0.44912198    -0.77300
C239        C  0.85586772  0.73260819  0.44386870     0.83500
N240        N  0.84288416  0.75489253  0.45459059    -0.79100
In241      In  0.22315066  0.49766382  0.44736689     1.36900
C242        C  0.21007044  0.44881631  0.44108578     0.78300
O243        O  0.21592190  0.50397816  0.36135079    -0.60200
O244        O  0.25345552  0.49186680  0.38535021    -0.51100
C245        C  0.20328923  0.54424655  0.45807641     0.70900
O246        O  0.18931728  0.52411706  0.45792431    -0.45900
C247        C  0.24068498  0.49955639  0.54448910     0.75600
O248        O  0.19339522  0.46676546  0.44349588    -0.57800
O249        O  0.25405596  0.50705470  0.50498957    -0.47900
O250        O  0.23315423  0.45612094  0.44375772    -0.54200
C251        C  0.23797392  0.49614688  0.34773352     0.85800
O252        O  0.22695461  0.54023684  0.45019637    -0.56100
O253        O  0.21951130  0.48910153  0.53359188    -0.59400
In254      In  0.77839096  0.50156584  0.40788743     1.36900
C255        C  0.80015479  0.45594928  0.40226047     0.78300
O256        O  0.78214127  0.49459422  0.49519537    -0.60200
O257        O  0.74748976  0.51165045  0.46766656    -0.51100
C258        C  0.79668156  0.54849400  0.40848475     0.70900
O259        O  0.81149057  0.52910365  0.41039216    -0.45900
C260        C  0.75860825  0.49757948  0.31185425     0.75600
O261        O  0.81361960  0.47630218  0.40162040    -0.57800
O262        O  0.74626971  0.49065581  0.35306683    -0.47900
O263        O  0.77623662  0.45952360  0.40735988    -0.54200
C264        C  0.76105076  0.50507732  0.50693405     0.85800
O265        O  0.77309664  0.54323963  0.40483964    -0.56100
O266        O  0.77978022  0.50848129  0.32028475    -0.59400
In267      In  0.77758439  0.00821924  0.48819704     1.36900
C268        C  0.79997145  0.05412883  0.47881235     0.78300
O269        O  0.77648636  0.99852281  0.40202757    -0.60200
O270        O  0.74441361  0.01863125  0.43439377    -0.51100
C271        C  0.79539876  0.96035627  0.49042227     0.70900
O272        O  0.81046888  0.97944995  0.48552306    -0.45900
C273        C  0.76152436  0.00580640  0.58843435     0.75600
O274        O  0.81283440  0.03342174  0.47607199    -0.57800
O275        O  0.74684385  0.00069408  0.55012653    -0.47900
O276        O  0.77620831  0.05087041  0.48706435    -0.54200
C277        C  0.75545138  0.00966732  0.39349347     0.85800
O278        O  0.77192481  0.96628723  0.49435179    -0.56100
O279        O  0.78329113  0.01445947  0.57526799    -0.59400
C280        C  0.14688042  0.26779090  0.42951315     0.80900
N281        N  0.12103965  0.27135671  0.42808520    -0.77400
C282        C  0.10505688  0.25081564  0.42775703     0.83400
N283        N  0.11513652  0.22671397  0.42872403    -0.77300
C284        C  0.14077553  0.22278814  0.42990003     0.83500
N285        N  0.15685963  0.24351201  0.42965675    -0.79100
C286        C  0.87313262  0.23372150  0.43301064     0.80900
N287        N  0.85932501  0.25540279  0.42291296    -0.77400
C288        C  0.87172886  0.27808798  0.41363680     0.83400
N289        N  0.89787811  0.27903330  0.41381972    -0.77300
C290        C  0.91180527  0.25769631  0.42449303     0.83500
N291        N  0.89925001  0.23521367  0.43452212    -0.79100
In292      In  0.22152308  0.99262238  0.45387228     1.36900
C293        C  0.20260678  0.03954697  0.45154707     0.78300
O294        O  0.22135659  0.99979889  0.54139111    -0.60200
O295        O  0.25345592  0.97965744  0.50897953    -0.51100
C296        C  0.19754904  0.94793457  0.45963591     0.70900
O297        O  0.18505818  0.96890280  0.45895780    -0.45900
C298        C  0.23888791  0.99738990  0.35467985     0.75600
O299        O  0.18824295  0.02000734  0.44694009    -0.57800
O300        O  0.25222118  0.00411243  0.39399490    -0.47900
O301        O  0.22596965  0.03462592  0.46020811    -0.54200
C302        C  0.24196424  0.98781373  0.55013070     0.85800
O303        O  0.22167086  0.95032235  0.45616706    -0.56100
O304        O  0.21854469  0.98558677  0.36649129    -0.59400
C305        C  0.14920276  0.15137677  0.46104702    -0.13700
C306        C  0.17152631  0.14577757  0.43212398     0.16700
C307        C  0.18274255  0.16515367  0.40000130     0.03000
C308        C  0.17279507  0.19024522  0.40105516    -0.12200
C309        C  0.15079984  0.19609208  0.43114697    -0.03200
C310        C  0.13844055  0.17601340  0.45999662     0.02200
C311        C  0.18091571  0.11893593  0.43412987     0.09100
N312        N  0.20282505  0.15960442  0.36292600     0.65400
H313        H  0.18167769  0.20488626  0.37668765     0.18400
N314        N  0.11517035  0.17990396  0.48935011     0.75900
H315        H  0.13990660  0.13650206  0.48392056     0.09900
C316        C  0.20243085  0.11161654  0.46427129     0.03600
C317        C  0.20852644  0.08558013  0.47031766    -0.05100
C318        C  0.19357167  0.06638421  0.44676942    -0.23500
C319        C  0.17191391  0.07370367  0.41680477     0.12800
C320        C  0.16562518  0.09979357  0.41141804    -0.12700
N321        N  0.21834896  0.13006636  0.48977864     0.64500
H322        H  0.22505709  0.08046441  0.49338094     0.12300
N323        N  0.15711933  0.05546804  0.38798401     0.61100
H324        H  0.14891876  0.10513508  0.38919657     0.08500
O325        O  0.11645564  0.18090905  0.53929340    -0.40300
O326        O  0.09437262  0.17265391  0.46880114    -0.39500
O327        O  0.19696465  0.15766913  0.31460310    -0.39500
O328        O  0.22538426  0.16632482  0.37427398    -0.37200
O329        O  0.13542739  0.04896097  0.40631538    -0.38100
O330        O  0.16109362  0.05373259  0.33865817    -0.34300
O331        O  0.21591907  0.13286337  0.53930569    -0.35700
O332        O  0.23969639  0.13542176  0.46834874    -0.40000
C333        C  0.98293764  0.27324003  0.40088363    -0.13700
C334        C  0.99437067  0.25514840  0.43465991     0.16700
C335        C  0.97864724  0.23993962  0.46810200     0.03000
C336        C  0.95196363  0.24179883  0.46449218    -0.12200
C337        C  0.94026385  0.25880167  0.42858263    -0.03200
C338        C  0.95619190  0.27537715  0.39760187     0.02200
C339        C  0.02267491  0.25351193  0.43455394     0.09100
N340        N  0.98904869  0.22294142  0.50711069     0.65400
H341        H  0.94031393  0.22973506  0.49020404     0.18400
N342        N  0.94615297  0.29308400  0.35949431     0.75900
H343        H  0.99481401  0.28535688  0.37590555     0.09900
C344        C  0.03594504  0.23206492  0.41399100     0.03600
C345        C  0.06261474  0.23241110  0.41062635    -0.05100
C346        C  0.07682223  0.25377505  0.42742957    -0.23500
C347        C  0.06348551  0.27584014  0.44585882     0.12800
C348        C  0.03662478  0.27540753  0.44928077    -0.12700
N349        N  0.02303832  0.21008238  0.39350255     0.64500
H350        H  0.07207096  0.21580334  0.39455978     0.12300
N351        N  0.07636312  0.29852772  0.46326914     0.61100
H352        H  0.02660890  0.29222679  0.46334437     0.08500
O353        O  0.94651661  0.28650800  0.31136614    -0.40300
O354        O  0.94679827  0.31680263  0.37014257    -0.39500
O355        O  0.98958227  0.23054719  0.55458822    -0.39500
O356        O  0.98777461  0.19904763  0.49874104    -0.37200
O357        O  0.07633756  0.31804751  0.43314452    -0.36500
O358        O  0.07855885  0.30193300  0.51258191    -0.34300
O359        O  0.02127389  0.20817423  0.34376376    -0.35700
O360        O  0.02349013  0.18962986  0.42074310    -0.40000
C361        C  0.84554710  0.11124751  0.45472024    -0.13700
C362        C  0.82981406  0.13190933  0.46995644     0.16700
C363        C  0.80399399  0.12671917  0.48471976     0.03000
C364        C  0.79514148  0.10129852  0.48736510    -0.12200
C365        C  0.81112685  0.08046588  0.47393606    -0.03200
C366        C  0.83645879  0.08579037  0.45621010     0.02200
C367        C  0.84024698  0.15854578  0.46438052     0.09100
N368        N  0.78609393  0.14666983  0.49760348     0.65400
H369        H  0.77578141  0.09804925  0.49987563     0.18400
N370        N  0.85335969  0.06611055  0.43767994     0.75900
H371        H  0.86448099  0.11484642  0.44023689     0.09900
C372        C  0.86384819  0.16635128  0.48687999     0.03600
C373        C  0.87345068  0.19105769  0.47685844    -0.05100
C374        C  0.86043580  0.20855172  0.44406905    -0.23500
C375        C  0.83682262  0.20077195  0.42166018     0.12800
C376        C  0.82723816  0.17592166  0.43136733    -0.12700
N377        N  0.87857008  0.14994967  0.52068664     0.64500
H378        H  0.89126840  0.19646079  0.49496645     0.12300
N379        N  0.82222831  0.21712624  0.38765163     0.61100
H380        H  0.81016300  0.17010360  0.41199562     0.08500
O381        O  0.87172745  0.05955671  0.46719016    -0.40300
O382        O  0.85595771  0.06339751  0.38815458    -0.39500
O383        O  0.76933970  0.15251493  0.46363530    -0.39500
O384        O  0.78091707  0.15043415  0.54596003    -0.37200
O385        O  0.82361585  0.21330442  0.33827698    -0.38100
O386        O  0.80192753  0.22695416  0.40637774    -0.34300
O387        O  0.89917798  0.14059523  0.50228382    -0.35700
O388        O  0.87690932  0.15356306  0.57008805    -0.40000
C389        C  0.82551948  0.33446274  0.42239837    -0.13700
C390        C  0.83622818  0.35108476  0.38425451     0.16700
C391        C  0.85771679  0.34261802  0.35417716     0.03000
C392        C  0.86791629  0.31820257  0.36317188    -0.12200
C393        C  0.85753478  0.30187266  0.40206154    -0.03200
C394        C  0.83575693  0.30996229  0.43131266     0.02200
C395        C  0.82703231  0.37807023  0.38323183     0.09100
N396        N  0.86948591  0.35805828  0.31373211     0.65400
H397        H  0.88444675  0.31217036  0.34006511     0.18400
N398        N  0.82451095  0.29455515  0.47240345     0.75900
H399        H  0.80989459  0.34097420  0.44744284     0.09900
C400        C  0.80072620  0.38456281  0.37871099     0.03600
C401        C  0.79298506  0.41008746  0.38429717    -0.05100
C402        C  0.81057759  0.42962419  0.39606612    -0.23500
C403        C  0.83675762  0.42308458  0.40182167     0.12800
C404        C  0.84466205  0.39752432  0.39522947    -0.12700
N405        N  0.78128757  0.36583734  0.36857933     0.64500
H406        H  0.77281577  0.41448873  0.37964396     0.12300
N407        N  0.85564308  0.44160788  0.41607587     0.61100
H408        H  0.86460584  0.39271257  0.40170471     0.08500
O409        O  0.80332903  0.28375629  0.46305866    -0.40300
O410        O  0.82989014  0.29977775  0.51990367    -0.39500
O411        O  0.89119484  0.36780804  0.32302019    -0.39500
O412        O  0.86393448  0.35310139  0.26623826    -0.37200
O413        O  0.86382105  0.44142161  0.46309847    -0.38100
O414        O  0.86997122  0.45056398  0.37983974    -0.34300
O415        O  0.76639922  0.35957282  0.40632723    -0.35700
O416        O  0.77301309  0.36410097  0.32181326    -0.40000
C417        C  0.21251314  0.37634654  0.41581301    -0.13700
C418        C  0.18727967  0.36949591  0.42856487     0.16700
C419        C  0.16998911  0.38857415  0.44652806     0.03000
C420        C  0.17794641  0.41417327  0.44998539    -0.12200
C421        C  0.20306704  0.42131974  0.43637123    -0.03200
C422        C  0.22050926  0.40202149  0.41899632     0.02200
C423        C  0.18025808  0.34202353  0.42685563     0.09100
N424        N  0.14390550  0.38282818  0.45959179     0.65400
H425        H  0.16437722  0.42840967  0.46341668     0.18400
N426        N  0.24593417  0.40785373  0.40103408     0.75900
H427        H  0.22584379  0.36192181  0.40309857     0.09900
C428        C  0.17540585  0.32900255  0.37895604     0.03600
C429        C  0.16664359  0.30354019  0.38037031    -0.05100
C430        C  0.16336789  0.29064898  0.42887393    -0.23500
C431        C  0.17074173  0.30287015  0.47622117     0.12800
C432        C  0.17921258  0.32839379  0.47478726    -0.12700
N433        N  0.17768635  0.34153823  0.32863237     0.64500
H434        H  0.16099023  0.29445656  0.34412219     0.12300
N435        N  0.16812054  0.29057602  0.52672722     0.61100
H436        H  0.18406645  0.33784281  0.51125370     0.08500
O437        O  0.24997924  0.40864214  0.35157662    -0.40300
O438        O  0.26443220  0.40226139  0.43104815    -0.39500
O439        O  0.13751362  0.38170304  0.50798055    -0.39500
O440        O  0.12703060  0.38900448  0.42628391    -0.37200
O441        O  0.18812656  0.28192639  0.54848315    -0.38100
O442        O  0.14933909  0.29690356  0.55586360    -0.34300
O443        O  0.19581649  0.33494673  0.29801190    -0.35700
O444        O  0.15774838  0.35119201  0.30865346    -0.40000
C445        C  0.83847772  0.84329352  0.52037936    -0.13700
C446        C  0.82151541  0.85179517  0.48143518     0.16700
C447        C  0.81484630  0.83475233  0.44016232     0.03000
C448        C  0.82537958  0.80983111  0.43867392    -0.12200
C449        C  0.84274795  0.80149675  0.47735117    -0.03200
C450        C  0.84895963  0.81853605  0.51897952     0.02200
C451        C  0.81410289  0.87940772  0.48262569     0.09100
N452        N  0.79816114  0.84234556  0.39832158     0.65400
H453        H  0.82074203  0.79736977  0.40595251     0.18400
N454        N  0.86519939  0.81119563  0.56165175     0.75900
H455        H  0.84389379  0.85612129  0.55194692     0.09900
C456        C  0.78972634  0.88798652  0.49968805     0.03600
C457        C  0.78460761  0.91438046  0.50282538    -0.05100
C458        C  0.80350274  0.93288247  0.49058006    -0.23500
C459        C  0.82849092  0.92422370  0.47715162     0.12800
C460        C  0.83345007  0.89773372  0.47309888    -0.12700
N461        N  0.77000776  0.87052926  0.51605001     0.64500
H462        H  0.76565486  0.92028931  0.51511064     0.12300
N463        N  0.84916815  0.94157583  0.46645436     0.61100
H464        H  0.85250772  0.89144043  0.46275590     0.08500
O465        O  0.85456637  0.80320916  0.60382290    -0.40300
O466        O  0.88646669  0.82259080  0.56527964    -0.39500
O467        O  0.80804588  0.84845490  0.35408835    -0.39500
O468        O  0.77546575  0.83383258  0.39925856    -0.37200
O469        O  0.86586711  0.94465808  0.50189966    -0.38100
O470        O  0.85558282  0.94541096  0.41864540    -0.34300
O471        O  0.76593267  0.86763539  0.56519941    -0.35700
O472        O  0.75172489  0.86657874  0.48458747    -0.40000
C473        C  0.84140140  0.66607199  0.38822056    -0.13700
C474        C  0.82431586  0.65629791  0.42645666     0.16700
C475        C  0.81538340  0.67302158  0.46693028     0.03000
C476        C  0.82438252  0.69857617  0.46929464    -0.12200
C477        C  0.84249451  0.70791194  0.43242028    -0.03200
C478        C  0.85056313  0.69141747  0.39085072     0.02200
C479        C  0.81722213  0.62847822  0.42309782     0.09100
N480        N  0.79849247  0.66431036  0.50817574     0.65400
H481        H  0.81840449  0.71053715  0.50178122     0.18400
N482        N  0.86798746  0.69982244  0.35031723     0.75900
H483        H  0.84805578  0.65380929  0.35658198     0.09900
C484        C  0.79241093  0.62061949  0.40791528     0.03600
C485        C  0.78674224  0.59459814  0.40290893    -0.05100
C486        C  0.80526703  0.57556809  0.41118154    -0.23500
C487        C  0.83055218  0.58295654  0.42328377     0.12800
C488        C  0.83637134  0.60933029  0.42930772    -0.12700
N489        N  0.77263397  0.63844941  0.39464381     0.64500
H490        H  0.76741754  0.58937578  0.39185107     0.12300
N491        N  0.85012394  0.56385909  0.42962195     0.61100
H492        H  0.85598949  0.61496647  0.43868370     0.08500
O493        O  0.89105776  0.69246827  0.35282235    -0.40300
O494        O  0.85890040  0.70544105  0.30542298    -0.39500
O495        O  0.80814448  0.65804017  0.55217751    -0.39500
O496        O  0.77549199  0.67198353  0.50754799    -0.37200
O497        O  0.85988390  0.55381422  0.38858749    -0.38100
O498        O  0.85127820  0.55168678  0.47306584    -0.34300
O499        O  0.76787320  0.64177145  0.34602313    -0.35700
O500        O  0.75445528  0.64119605  0.42757389    -0.40000
C501        C  0.17297390  0.82377161  0.47311799    -0.13700
C502        C  0.15761467  0.84459383  0.48883955     0.16700
C503        C  0.13245833  0.83952339  0.50751226     0.03000
C504        C  0.12378879  0.81420254  0.51265799    -0.12200
C505        C  0.13894291  0.79306907  0.49720238    -0.03200
C506        C  0.16401788  0.79825398  0.47687883     0.02200
C507        C  0.16771311  0.87128069  0.48240022     0.09100
N508        N  0.11525300  0.85960885  0.52283652     0.65400
H509        H  0.10464530  0.81130126  0.52844945     0.18400
N510        N  0.18073692  0.77844487  0.45818449     0.75900
H511        H  0.19178117  0.82732534  0.45654994     0.09900
C512        C  0.19137903  0.87918098  0.50418721     0.03600
C513        C  0.20021732  0.90423946  0.49578322    -0.05100
C514        C  0.18588408  0.92220933  0.46683468    -0.23500
C515        C  0.16206247  0.91455836  0.44557132     0.12800
C516        C  0.15359012  0.88908548  0.45229205    -0.12700
N517        N  0.20635038  0.86279368  0.53748345     0.64500
H518        H  0.21815739  0.90978721  0.51321560     0.12300
N519        N  0.14585988  0.93194092  0.41732695     0.61100
H520        H  0.13603164  0.88331946  0.43415878     0.08500
O521        O  0.18236155  0.77496886  0.40871355    -0.40300
O522        O  0.19982044  0.77261431  0.48639536    -0.39500
O523        O  0.09622172  0.86428422  0.49355208    -0.39500
O524        O  0.11347067  0.86479249  0.57152895    -0.37200
O525        O  0.14597539  0.93097445  0.36728098    -0.38100
O526        O  0.12578884  0.93980018  0.44060047    -0.34300
O527        O  0.22721251  0.85402830  0.51909501    -0.35700
O528        O  0.20426114  0.86570343  0.58703644    -0.40000
C529        C  0.19795693  0.61659460  0.48250022    -0.13700
C530        C  0.17143003  0.62037840  0.48039691     0.16700
C531        C  0.15542350  0.59874511  0.47042837     0.03000
C532        C  0.16628696  0.57430693  0.46330888    -0.12200
C533        C  0.19285193  0.57054819  0.46649324    -0.03200
C534        C  0.20865918  0.59204587  0.47749955     0.02200
C535        C  0.16152638  0.64724662  0.48377914     0.09100
N536        N  0.12803040  0.60054626  0.46907229     0.65400
H537        H  0.15382517  0.55829255  0.45560038     0.18400
N538        N  0.23541779  0.58952738  0.48793606     0.75900
H539        H  0.21056836  0.63264652  0.48814933     0.09900
C540        C  0.16941276  0.66534879  0.52275764     0.03600
C541        C  0.15899257  0.69019646  0.52298661    -0.05100
C542        C  0.14088827  0.69745055  0.48534339    -0.23500
C543        C  0.13420212  0.68013829  0.44490391     0.12800
C544        C  0.14494588  0.65558588  0.44382848    -0.12700
N545        N  0.18689999  0.65904607  0.56419840     0.64500
H546        H  0.16412499  0.70332495  0.55403191     0.12300
N547        N  0.11649906  0.68690761  0.40422701     0.61100
H548        H  0.14020795  0.64304035  0.41155268     0.08500
O549        O  0.24234251  0.58973013  0.53583006    -0.40300
O550        O  0.25116901  0.59706342  0.45281544    -0.39500
O551        O  0.11714567  0.59893280  0.42460941    -0.39500
O552        O  0.11564660  0.59348160  0.50990359    -0.37200
O553        O  0.12543531  0.69367591  0.35956725    -0.38100
O554        O  0.09429559  0.67720656  0.40635117    -0.34300
O555        O  0.20932866  0.66823917  0.56128047    -0.35700
O556        O  0.17757570  0.65438501  0.60963159    -0.40000
C557        C  0.96497558  0.76681551  0.49868771    -0.13700
C558        C  0.97732583  0.74632523  0.47365001     0.16700
C559        C  0.96227617  0.72760847  0.44767326     0.03000
C560        C  0.93564751  0.73042226  0.44606602    -0.12200
C561        C  0.92331734  0.75182456  0.46871196    -0.03200
C562        C  0.93857651  0.77035926  0.49471867     0.02200
C563        C  0.00561666  0.74493331  0.47828610     0.09100
N564        N  0.97327065  0.70630098  0.41999593     0.65400
H565        H  0.92480806  0.71598213  0.42544531     0.18400
N566        N  0.92839792  0.79337118  0.51678956     0.75900
H567        H  0.97592685  0.78054799  0.52101939     0.09900
C568        C  0.02150062  0.76656823  0.46817251     0.03600
C569        C  0.04763952  0.76536009  0.47877301    -0.05100
C570        C  0.05906712  0.74277774  0.49805039    -0.23500
C571        C  0.04314156  0.72102108  0.50816900     0.12800
C572        C  0.01663884  0.72257498  0.49932836    -0.12700
N573        N  0.01206344  0.78981059  0.44472490     0.64500
H574        H  0.05906464  0.78202188  0.46950914     0.12300
N575        N  0.05297864  0.69691692  0.52643095     0.61100
H576        H  0.00474086  0.70635711  0.50923113     0.08500
O577        O  0.93120958  0.81386679  0.49012760    -0.40300
O578        O  0.92769636  0.79491102  0.56673865    -0.39500
O579        O  0.97086727  0.68414470  0.44035760    -0.39500
O580        O  0.97531199  0.70808220  0.37015529    -0.37200
O581        O  0.04886286  0.69065260  0.57422825    -0.38100
O582        O  0.05561755  0.67917118  0.49279303    -0.34300
O583        O  0.01014929  0.80949819  0.47369881    -0.35700
O584        O  0.01580815  0.79308744  0.39559224    -0.40000
C585        C  0.90849746  0.40385201  0.14206638    -0.13700
C586        C  0.90047252  0.41989758  0.18353432     0.16700
C587        C  0.91735893  0.42478759  0.22583849     0.03000
C588        C  0.94180762  0.41379111  0.22572771    -0.12200
C589        C  0.94950290  0.39736772  0.18490712    -0.03200
C590        C  0.93275927  0.39243809  0.14256525     0.02200
C591        C  0.87345952  0.42842799  0.18338308     0.09100
N592        N  0.90975535  0.43910389  0.27138569     0.65400
H593        H  0.95421264  0.41697250  0.25903077     0.18400
N594        N  0.94011333  0.37666383  0.09877924     0.75900
H595        H  0.89568664  0.39974082  0.10989338     0.09900
C596        C  0.86620497  0.45365181  0.16964975     0.03600
C597        C  0.84027040  0.45973035  0.16410343    -0.05100
C598        C  0.82093255  0.44120948  0.17247555    -0.23500
C599        C  0.82831513  0.41583591  0.18645769     0.12800
C600        C  0.85441554  0.40967615  0.19078098    -0.12700
N601        N  0.88462603  0.47353301  0.16042651     0.64500
H602        H  0.83541012  0.47921330  0.15328934     0.12300
N603        N  0.81011290  0.39623946  0.19951378     0.61100
H604        H  0.85984283  0.39027166  0.19992227     0.08500
O605        O  0.94713529  0.38771754  0.05634817    -0.40300
O606        O  0.93080744  0.35429384  0.09601723    -0.39500
O607        O  0.90490879  0.42666256  0.31345849    -0.39500
O608        O  0.91790603  0.46188442  0.27532625    -0.37200
O609        O  0.80679924  0.37826685  0.16674865    -0.38100
O610        O  0.80596739  0.39167013  0.24806980    -0.34300
O611        O  0.88919001  0.48029447  0.11307652    -0.35700
O612        O  0.88802728  0.48976142  0.19677926    -0.40000
C613        C  0.07563741  0.06944478  0.18999900    -0.13700
C614        C  0.09216250  0.07455350  0.23219951     0.16700
C615        C  0.08316850  0.08995258  0.27486595     0.03000
C616        C  0.05824390  0.09975353  0.27405572    -0.12200
C617        C  0.04206354  0.09488078  0.23143770    -0.03200
C618        C  0.05074003  0.07940319  0.18928158     0.02200
C619        C  0.11937502  0.06668934  0.22646854     0.09100
N620        N  0.09873679  0.09611125  0.31943032     0.65400
H621        H  0.05176024  0.11196377  0.30621061     0.18400
N622        N  0.03539042  0.07486405  0.14368965     0.75900
H623        H  0.08251001  0.05881929  0.15591570     0.09900
C624        C  0.12690847  0.04110489  0.21530304     0.03600
C625        C  0.15284725  0.03521352  0.20822962    -0.05100
C626        C  0.17185143  0.05434595  0.21055442    -0.23500
C627        C  0.16409140  0.08018645  0.21828149     0.12800
C628        C  0.13808427  0.08604639  0.22613579    -0.12700
N629        N  0.10890668  0.02044845  0.21156281     0.64500
H630        H  0.15795291  0.01552061  0.20133887     0.12300
N631        N  0.18190612  0.10097483  0.21967210     0.61100
H632        H  0.13253381  0.10575304  0.23123287     0.08500
O633        O  0.03941285  0.08845251  0.10275276    -0.40300
O634        O  0.02577331  0.05274731  0.13821863    -0.39500
O635        O  0.10762840  0.11867400  0.32252375    -0.39500
O636        O  0.09482396  0.08372112  0.36196150    -0.37200
O637        O  0.18349161  0.11553848  0.17948295    -0.38100
O638        O  0.18727740  0.11016009  0.26445850    -0.34300
O639        O  0.10404011  0.01176425  0.16602128    -0.35700
O640        O  0.10657539  0.00546653  0.25091533    -0.40000
C641        C  0.91391838  0.07129720  0.26515860    -0.13700
C642        C  0.89516446  0.08511325  0.23740163     0.16700
C643        C  0.90237695  0.10741712  0.20877785     0.03000
C644        C  0.92800812  0.11493092  0.20696834    -0.12200
C645        C  0.94704286  0.10114476  0.23416604    -0.03200
C646        C  0.93975452  0.07894731  0.26357409     0.02200
C647        C  0.86824420  0.07624594  0.24030395     0.09100
N648        N  0.88435998  0.12252174  0.17960172     0.65400
H649        H  0.93293220  0.13172369  0.18391074     0.18400
N650        N  0.95772771  0.06397682  0.29299776     0.75900
H651        H  0.90848805  0.05474303  0.28840765     0.09900
C652        C  0.86094551  0.05149673  0.22328091     0.03600
C653        C  0.83528325  0.04413492  0.22601518    -0.05100
C654        C  0.81628300  0.06097166  0.24492632    -0.23500
C655        C  0.82368893  0.08551500  0.26350621     0.12800
C656        C  0.84959489  0.09272899  0.26171612    -0.12700
N657        N  0.87879998  0.03397631  0.19975172     0.64500
H658        H  0.83021594  0.02531838  0.21142897     0.12300
N659        N  0.80558447  0.10375391  0.28348875     0.61100
H660        H  0.85508707  0.11130132  0.27647635     0.08500
O661        O  0.95851662  0.06704300  0.34262591    -0.40300
O662        O  0.96436974  0.04245332  0.27429304    -0.39500
O663        O  0.87809517  0.14427492  0.19779246    -0.39500
O664        O  0.88319183  0.11910386  0.13013586    -0.37200
O665        O  0.80392735  0.10666409  0.33311476    -0.38100
O666        O  0.79959021  0.12242551  0.25377656    -0.34300
O667        O  0.88514145  0.01419554  0.22591565    -0.35700
O668        O  0.87994855  0.03307825  0.14974184    -0.40000
C669        C  0.97553423  0.27260454  0.20464744    -0.13700
C670        C  0.99634796  0.26148649  0.23079586     0.16700
C671        C  0.01647164  0.27752629  0.24816066     0.03000
C672        C  0.01483619  0.30409055  0.24094302    -0.12200
C673        C  0.99380723  0.31550733  0.21539954    -0.03200
C674        C  0.97384466  0.29923473  0.19718446     0.02200
C675        C  0.99761971  0.23308580  0.23338006     0.09100
N676        N  0.03877107  0.26768202  0.27387417     0.65400
H677        H  0.03035210  0.31569663  0.25562356     0.18400
N678        N  0.95163955  0.30872216  0.17071277     0.75900
H679        H  0.96059778  0.26048564  0.18891648     0.09900
C680        C  0.97746043  0.21791543  0.25476982     0.03600
C681        C  0.97867139  0.19122216  0.25154429    -0.05100
C682        C  0.99938140  0.17876431  0.22673241    -0.23500
C683        C  0.01941453  0.19396723  0.20453633     0.12800
C684        C  0.01817732  0.22084653  0.20774553    -0.12700
N685        N  0.95583377  0.22872987  0.28180439     0.64500
H686        H  0.96327148  0.18027211  0.26937636     0.12300
N687        N  0.04089283  0.18308274  0.17717201     0.61100
H688        H  0.03294930  0.23212974  0.18884932     0.08500
O689        O  0.93084596  0.30951577  0.19682309    -0.40300
O690        O  0.95051008  0.30577141  0.12109137    -0.39500
O691        O  0.05925076  0.26588047  0.24693890    -0.39500
O692        O  0.04060943  0.27134774  0.32309154    -0.37200
O693        O  0.04116390  0.18419736  0.12709467    -0.38100
O694        O  0.06210955  0.18246764  0.20100708    -0.34300
O695        O  0.93466098  0.22941270  0.25775831    -0.35700
O696        O  0.95534598  0.22688626  0.33172770    -0.40000
C697        C  0.57607667  0.43409604  0.20894279    -0.13700
C698        C  0.59412177  0.41747998  0.18569867     0.16700
C699        C  0.58683023  0.39167716  0.17539371     0.03000
C700        C  0.56210007  0.38327273  0.18806133    -0.12200
C701        C  0.54419152  0.39976330  0.21179832    -0.03200
C702        C  0.55123894  0.42557838  0.22168858     0.02200
C703        C  0.62106982  0.42652178  0.17942981     0.09100
N704        N  0.60395680  0.37340383  0.15192906     0.65400
H705        H  0.55702399  0.36360998  0.17955051     0.18400
N706        N  0.53419462  0.44332124  0.24694674     0.75900
H707        H  0.58151257  0.45333984  0.21927962     0.09900
C708        C  0.62799165  0.44968117  0.15289269     0.03600
C709        C  0.65384232  0.45698894  0.14950038    -0.05100
C710        C  0.67318966  0.44197565  0.17273797    -0.23500
C711        C  0.66608754  0.41963150  0.20148767     0.12800
C712        C  0.64028436  0.41228167  0.20481765    -0.12700
N713        N  0.60953662  0.46594062  0.12770017     0.64500
H714        H  0.65873019  0.47426095  0.12821214     0.12300
N715        N  0.68430881  0.40447482  0.22979586     0.61100
H716        H  0.63526988  0.39573775  0.22823246     0.08500
O717        O  0.53682539  0.44727970  0.29598518    -0.40300
O718        O  0.52430699  0.46082851  0.21880809    -0.39500
O719        O  0.61298335  0.35584662  0.18124177    -0.39500
O720        O  0.60160461  0.36890160  0.10304797    -0.37200
O721        O  0.68633666  0.40808391  0.27909215    -0.38100
O722        O  0.68994457  0.38258933  0.21153105    -0.34300
O723        O  0.60404603  0.48712276  0.14944675    -0.35700
O724        O  0.60714313  0.46419510  0.07805809    -0.40000
C725        C  0.41597637  0.07213270  0.23340635    -0.13700
C726        C  0.39605831  0.08772963  0.21400107     0.16700
C727        C  0.40157024  0.11361601  0.19984458     0.03000
C728        C  0.42652136  0.12296212  0.20390335    -0.12200
C729        C  0.44641969  0.10750399  0.22354081    -0.03200
C730        C  0.44105375  0.08171733  0.23790098     0.02200
C731        C  0.36964281  0.07698538  0.21270249     0.09100
N732        N  0.38252804  0.13124331  0.18103604     0.65400
H733        H  0.43008270  0.14239375  0.19252683     0.18400
N734        N  0.46017255  0.06491851  0.25897078     0.75900
H735        H  0.41203413  0.05307777  0.24651602     0.09900
C736        C  0.36371102  0.05317193  0.18851435     0.03600
C737        C  0.33835781  0.04439760  0.18812633    -0.05100
C738        C  0.31844792  0.05879992  0.21123861    -0.23500
C739        C  0.32452332  0.08199352  0.23726344     0.12800
C740        C  0.34997213  0.09054941  0.23857639    -0.12700
N741        N  0.38262123  0.03782895  0.16203058     0.64500
H742        H  0.33426029  0.02659270  0.16857634     0.12300
N743        N  0.30548303  0.09735937  0.26297572     0.61100
H744        H  0.35428206  0.10777381  0.25997760     0.08500
O745        O  0.46788162  0.04658692  0.23025143    -0.40300
O746        O  0.46150475  0.06244603  0.30873583    -0.39500
O747        O  0.37389241  0.14777286  0.21314728    -0.39500
O748        O  0.38310670  0.13714892  0.13242438    -0.37200
O749        O  0.30352061  0.09589340  0.31287194    -0.38100
O750        O  0.29862969  0.11793430  0.24024603    -0.34300
O751        O  0.39020777  0.01749838  0.18476385    -0.35700
O752        O  0.38355961  0.03884141  0.11199962    -0.40000
C753        C  0.63835395  0.09575402  0.21351405    -0.13700
C754        C  0.61916516  0.08019881  0.23604587     0.16700
C755        C  0.62564715  0.05569447  0.25583890     0.03000
C756        C  0.65112875  0.04747025  0.25457124    -0.12200
C757        C  0.67068288  0.06329358  0.23389094    -0.03200
C758        C  0.66406342  0.08767247  0.21257578     0.02200
C759        C  0.59245634  0.08966597  0.23628812     0.09100
N760        N  0.60688712  0.03880360  0.27844813     0.65400
H761        H  0.65552264  0.02887265  0.27071874     0.18400
N762        N  0.68272800  0.10462610  0.18969525     0.75900
H763        H  0.63335576  0.11420767  0.19711280     0.09900
C764        C  0.58236886  0.10402823  0.27884209     0.03600
C765        C  0.55728769  0.11340020  0.27670151    -0.05100
C766        C  0.54185534  0.10905856  0.23232929    -0.23500
C767        C  0.55207671  0.09495939  0.18913117     0.12800
C768        C  0.57733595  0.08547592  0.19138065    -0.12700
N769        N  0.59713750  0.10970064  0.32474361     0.64500
H770        H  0.55000175  0.12423025  0.30949808     0.12300
N771        N  0.53794349  0.09082099  0.14166152     0.61100
H772        H  0.58515002  0.07532118  0.15832120     0.08500
O773        O  0.68977919  0.12375210  0.21659579    -0.40300
O774        O  0.68429947  0.10604217  0.13974105    -0.39500
O775        O  0.59978764  0.01968773  0.25155247    -0.39500
O776        O  0.60530998  0.03742822  0.32838626    -0.37200
O777        O  0.54225549  0.10551595  0.10250401    -0.38100
O778        O  0.52964347  0.06842133  0.13296202    -0.34300
O779        O  0.60607883  0.13216195  0.32938876    -0.35700
O780        O  0.59291531  0.09663293  0.36627433    -0.40000
C781        C  0.47188165  0.22719101  0.29406288    -0.13700
C782        C  0.49193151  0.24167446  0.27182996     0.16700
C783        C  0.51312213  0.22846944  0.24878329     0.03000
C784        C  0.51272076  0.20172499  0.24468806    -0.12200
C785        C  0.49196590  0.18726227  0.26403441    -0.03200
C786        C  0.47160286  0.20028543  0.29033000     0.02200
C787        C  0.49070072  0.27021366  0.27500302     0.09100
N788        N  0.53518787  0.24136749  0.22754449     0.65400
H789        H  0.52853029  0.19245281  0.22506428     0.18400
N790        N  0.45070244  0.18697250  0.31503941     0.75900
H791        H  0.45647787  0.23670701  0.31482590     0.09900
C792        C  0.46940145  0.28484508  0.25711617     0.03600
C793        C  0.47112222  0.31168673  0.25447400    -0.05100
C794        C  0.49343651  0.32465461  0.27003204    -0.23500
C795        C  0.51336806  0.31010298  0.29378843     0.12800
C796        C  0.51162541  0.28324089  0.29647341    -0.12700
N797        N  0.44609961  0.27328586  0.23948916     0.64500
H798        H  0.45524720  0.32223647  0.23775940     0.12300
N799        N  0.53578361  0.32173269  0.31511238     0.61100
H800        H  0.52706972  0.27251218  0.31426303     0.08500
O801        O  0.42924250  0.18748560  0.29214791    -0.40300
O802        O  0.45099987  0.18436074  0.36488447    -0.39500
O803        O  0.55534584  0.24139209  0.25505850    -0.39500
O804        O  0.53769342  0.24206886  0.17775794    -0.37200
O805        O  0.53718683  0.32366035  0.36493312    -0.38100
O806        O  0.55640688  0.32004553  0.28864801    -0.34300
O807        O  0.42696377  0.27357496  0.27063635    -0.35700
O808        O  0.44194439  0.27299947  0.19028018    -0.40000
C809        C  0.12799020  0.44460224  0.25118419    -0.13700
C810        C  0.12130451  0.42125153  0.22750108     0.16700
C811        C  0.14000653  0.40801189  0.19710417     0.03000
C812        C  0.16500581  0.41780154  0.19249760    -0.12200
C813        C  0.17171274  0.44116098  0.21613412    -0.03200
C814        C  0.15281886  0.45468458  0.24576834     0.02200
C815        C  0.09404767  0.41292772  0.23055032     0.09100
N816        N  0.13387202  0.38545420  0.16775283     0.65400
H817        H  0.17890380  0.40754630  0.16876147     0.18400
N818        N  0.15836390  0.47816026  0.27261169     0.75900
H819        H  0.11382080  0.45515825  0.27362903     0.09900
C820        C  0.08605619  0.39029233  0.25691364     0.03600
C821        C  0.06048400  0.38241831  0.25438695    -0.05100
C822        C  0.04222328  0.39643782  0.22542861    -0.23500
C823        C  0.04964599  0.42065674  0.20384797     0.12800
C824        C  0.07539084  0.42860373  0.20675244    -0.12700
N825        N  0.10324574  0.37465216  0.28668619     0.64500
H826        H  0.05523704  0.36470967  0.27382635     0.12300
N827        N  0.03221779  0.43696412  0.17595555     0.61100
H828        H  0.08097890  0.44650707  0.18852539     0.08500
O829        O  0.16173313  0.47717968  0.32213758    -0.40300
O830        O  0.15054803  0.49900677  0.25237761    -0.39500
O831        O  0.12949717  0.38789795  0.11878037    -0.39500
O832        O  0.14213271  0.36409570  0.18453639    -0.37200
O833        O  0.02312731  0.45626080  0.19994454    -0.38100
O834        O  0.03397233  0.43786859  0.12598780    -0.34300
O835        O  0.10253241  0.37669442  0.33651607    -0.35700
O836        O  0.10952941  0.35318816  0.26732137    -0.40000
C837        C  0.35718081  0.41638139  0.20207775    -0.13700
C838        C  0.37343140  0.43565584  0.22107114     0.16700
C839        C  0.36375615  0.46075520  0.22790757     0.03000
C840        C  0.33773353  0.46560650  0.21951545    -0.12200
C841        C  0.32091646  0.44601819  0.20328658    -0.03200
C842        C  0.33111887  0.42125805  0.19315220     0.02200
C843        C  0.40041768  0.42861753  0.23103632     0.09100
N844        N  0.37951677  0.48156415  0.24498562     0.65400
H845        H  0.33069497  0.48472896  0.22694581     0.18400
N846        N  0.31591605  0.40073050  0.17307936     0.75900
H847        H  0.36473497  0.39750033  0.19428097     0.09900
C848        C  0.40685090  0.41109198  0.27171447     0.03600
C849        C  0.43139017  0.40048998  0.27355713    -0.05100
C850        C  0.45005550  0.40681188  0.23530159    -0.23500
C851        C  0.44408975  0.42554002  0.19610062     0.12800
C852        C  0.41924987  0.43601552  0.19403108    -0.12700
N853        N  0.38883999  0.40362044  0.31192261     0.64500
H854        H  0.43564180  0.38693202  0.30465833     0.12300
N855        N  0.46228036  0.43368819  0.15679018     0.61100
H856        H  0.41439223  0.44906534  0.16230824     0.08500
O857        O  0.31040758  0.38238720  0.20421426    -0.40300
O858        O  0.31712469  0.39623609  0.12393209    -0.39500
O859        O  0.38530991  0.49887939  0.21159442    -0.39500
O860        O  0.37893434  0.48738024  0.29354451    -0.37200
O861        O  0.46009229  0.42505707  0.11031134    -0.38100
O862        O  0.47293063  0.45528764  0.16285206    -0.34300
O863        O  0.37911002  0.38139609  0.30963966    -0.35700
O864        O  0.39043703  0.41432602  0.35661398    -0.40000
C865        C  0.31847662  0.11631636  0.94045891    -0.13700
C866        C  0.33174419  0.12056962  0.98767586     0.16700
C867        C  0.33555690  0.09969337  0.02291369     0.03000
C868        C  0.32692438  0.07502292  0.00969230    -0.12200
C869        C  0.31370558  0.07069943  0.96240158    -0.03200
C870        C  0.30943565  0.09172853  0.92755056     0.02200
C871        C  0.34018785  0.14722930  0.99929962     0.09100
N872        N  0.34720640  0.10294797  0.07335363     0.65400
H873        H  0.32962148  0.05952091  0.03749359     0.18400
N874        N  0.29728483  0.08860630  0.87746198     0.75900
H875        H  0.31520384  0.13207827  0.91348567     0.09900
C876        C  0.36603634  0.15488957  0.99463853     0.03600
C877        C  0.37295800  0.18042341  0.00417048    -0.05100
C878        C  0.35451804  0.19910394  0.01788915    -0.23500
C879        C  0.32829462  0.19173931  0.01951935     0.12800
C880        C  0.32139525  0.16595001  0.01024991    -0.12700
N881        N  0.38576377  0.13749343  0.97830310     0.64500
H882        H  0.39272549  0.18546839  0.00063756     0.12300
N883        N  0.30823717  0.20938712  0.03293247     0.61100
H884        H  0.30174295  0.16058884  0.01200403     0.08500
O885        O  0.31139608  0.08827425  0.83646975    -0.40300
O886        O  0.27426437  0.09586849  0.87289035    -0.39500
O887        O  0.33273349  0.10433054  0.11371432    -0.39500
O888        O  0.36974721  0.09452792  0.07909725    -0.37200
O889        O  0.29449425  0.21819944  0.99599375    -0.38100
O890        O  0.29877846  0.20823839  0.07917668    -0.34300
O891        O  0.39369134  0.13885264  0.93087941    -0.35700
O892        O  0.40083960  0.12894551  0.01315708    -0.40000
C893        C  0.46885387  0.23890200  0.10442814    -0.13700
C894        C  0.48049161  0.26105420  0.08267662     0.16700
C895        C  0.46488968  0.27978042  0.05828912     0.03000
C896        C  0.43849327  0.27591052  0.05506442    -0.12200
C897        C  0.42688635  0.25320201  0.07396595    -0.03200
C898        C  0.44237408  0.23459257  0.09972715     0.02200
C899        C  0.50867594  0.26077849  0.07465752     0.09100
N900        N  0.47532420  0.30182675  0.03182354     0.65400
H901        H  0.42737063  0.29025085  0.03463504     0.18400
N902        N  0.43193336  0.21166829  0.12290021     0.75900
H903        H  0.48060742  0.22426983  0.12282948     0.09900
C904        C  0.52558360  0.27975871  0.09392113     0.03600
C905        C  0.55183091  0.27850432  0.08104237    -0.05100
C906        C  0.56162032  0.25854574  0.04938043    -0.23500
C907        C  0.54470110  0.23910229  0.03187187     0.12800
C908        C  0.51865580  0.24046293  0.04461708    -0.12700
N909        N  0.51722213  0.29941500  0.12943801     0.64500
H910        H  0.56451059  0.29293267  0.09620631     0.12300
N911        N  0.55278056  0.21893055  0.99724473     0.61100
H912        H  0.50596717  0.22588973  0.02934766     0.08500
O913        O  0.43030363  0.21039307  0.17286999    -0.40300
O914        O  0.43373105  0.19094179  0.09717541    -0.39500
O915        O  0.47793737  0.30095592  0.98200398    -0.39500
O916        O  0.47193653  0.32351073  0.05314267    -0.37200
O917        O  0.54810318  0.22139002  0.94840221    -0.38100
O918        O  0.55495063  0.19649398  0.01625781    -0.34300
O919        O  0.52172665  0.29628399  0.17811306    -0.35700
O920        O  0.51562830  0.32213810  0.11185810    -0.40000
C921        C  0.67127697  0.33941547  0.98130435    -0.13700
C922        C  0.65359418  0.35782880  0.96276601     0.16700
C923        C  0.62795341  0.35009619  0.95488637     0.03000
C924        C  0.62020734  0.32516930  0.96863660    -0.12200
C925        C  0.63744079  0.30703944  0.98970753    -0.03200
C926        C  0.66355893  0.31420728  0.99462067     0.02200
C927        C  0.66322352  0.38400915  0.94816128     0.09100
N928        N  0.60939148  0.36653712  0.93077155     0.65400
H929        H  0.60052120  0.32001274  0.96215899     0.18400
N930        N  0.68246963  0.29705218  0.01539200     0.75900
H931        H  0.69110594  0.34470309  0.98602988     0.09900
C932        C  0.65458522  0.40688290  0.97281477     0.03600
C933        C  0.66536308  0.43071947  0.95850398    -0.05100
C934        C  0.68529468  0.43238273  0.92083003    -0.23500
C935        C  0.69407543  0.40947993  0.89638373     0.12800
C936        C  0.68303756  0.38562500  0.91001448    -0.12700
N937        N  0.63610534  0.40666619  0.01495928     0.64500
H938        H  0.65897777  0.44758123  0.97860149     0.12300
N939        N  0.71344943  0.40960896  0.85587342     0.61100
H940        H  0.68978652  0.36890631  0.89149221     0.08500
O941        O  0.68985017  0.30048292  0.06240798    -0.40300
O942        O  0.69759561  0.28612431  0.98318152    -0.39500
O943        O  0.60506423  0.36356789  0.88196995    -0.39500
O944        O  0.59146733  0.37508323  0.95973697    -0.37200
O945        O  0.73585119  0.40253479  0.86802434    -0.38100
O946        O  0.70638171  0.40713129  0.80838419    -0.34300
O947        O  0.64425902  0.40801591  0.06187660    -0.35700
O948        O  0.61401803  0.41543100  0.00537322    -0.40000
C949        C  0.33787911  0.33969117  0.04459258    -0.13700
C950        C  0.32966273  0.34383749  0.99243235     0.16700
C951        C  0.33037864  0.32300663  0.95641078     0.03000
C952        C  0.33833618  0.29856854  0.97380099    -0.12200
C953        C  0.34719085  0.29473052  0.02558260    -0.03200
C954        C  0.34724432  0.31577816  0.06095883     0.02200
C955        C  0.32260764  0.37065248  0.97743806     0.09100
N956        N  0.32591004  0.32648032  0.90102970     0.65400
H957        H  0.33949213  0.28306094  0.94550270     0.18400
N958        N  0.35705804  0.31368543  0.11357782     0.75900
H959        H  0.33796236  0.35537108  0.07235660     0.09900
C960        C  0.29778037  0.37753604  0.96070738     0.03600
C961        C  0.29154891  0.40342541  0.95269900    -0.05100
C962        C  0.30924142  0.42325222  0.96273850    -0.23500
C963        C  0.33400842  0.41642399  0.98076141     0.12800
C964        C  0.34048977  0.39034718  0.98728286    -0.12700
N965        N  0.27775945  0.35902663  0.95499265     0.64500
H966        H  0.27244813  0.40785587  0.94020872     0.12300
N967        N  0.35291907  0.43520189  0.99383726     0.61100
H968        H  0.35920306  0.38552645  0.00149746     0.08500
O969        O  0.34115553  0.31247257  0.15159996    -0.40300
O970        O  0.37921103  0.32247960  0.12243008    -0.39500
O971        O  0.34521977  0.32885177  0.87072206    -0.39500
O972        O  0.30557881  0.31726222  0.88202462    -0.37200
O973        O  0.35579778  0.44084303  0.04210625    -0.38100
O974        O  0.37177759  0.43805837  0.96254548    -0.34300
O975        O  0.26189399  0.35638629  0.99280834    -0.35700
O976        O  0.27037182  0.35396175  0.90865956    -0.40000
C977        C  0.66454371  0.17675903  0.97115088    -0.13700
C978        C  0.65632769  0.15904979  0.01020800     0.16700
C979        C  0.64118736  0.16810655  0.05289774     0.03000
C980        C  0.63365766  0.19385488  0.05439180    -0.12200
C981        C  0.64058885  0.21126278  0.01402804    -0.03200
C982        C  0.65665208  0.20264122  0.97229422     0.02200
C983        C  0.66619858  0.13219488  0.00766786     0.09100
N984        N  0.63362127  0.15200842  0.09630256     0.65400
H985        H  0.62179108  0.20014011  0.08720314     0.18400
N986        N  0.66368111  0.21894815  0.92873640     0.75900
H987        H  0.67675055  0.17030457  0.93893656     0.09900
C988        C  0.65057219  0.11059036  0.99717686     0.03600
C989        C  0.66161357  0.08604946  0.99270532    -0.05100
C990        C  0.68805971  0.08215795  0.99930722    -0.23500
C991        C  0.70362610  0.10388254  0.01059302     0.12800
C992        C  0.69265947  0.12850627  0.01348796    -0.12700
N993        N  0.62347947  0.11276583  0.99048887     0.64500
H994        H  0.64925717  0.06993320  0.98412450     0.12300
N995        N  0.73023077  0.10163321  0.02309260     0.61100
H996        H  0.70477745  0.14471015  0.02164640     0.08500
O997        O  0.68606001  0.22828489  0.92756688    -0.40300
O998        O  0.65199138  0.21616087  0.88546450    -0.39500
O999        O  0.64527715  0.15476677  0.13960369    -0.39500
O1000       O  0.61062602  0.14436243  0.09799695    -0.37200
O1001       O  0.74653264  0.10897104  0.98885909    -0.38100
O1002       O  0.73637305  0.10227305  0.07143474    -0.34300
O1003       O  0.61478753  0.11205756  0.94391585    -0.35700
O1004       O  0.60918622  0.10510623  0.02806070    -0.40000
C1005       C  0.65478013  0.66366041  0.86419191    -0.13700
C1006       C  0.67339036  0.65862233  0.90252551     0.16700
C1007       C  0.68285630  0.67933982  0.93282784     0.03000
C1008       C  0.67193660  0.70399152  0.92773763    -0.12200
C1009       C  0.65162086  0.70859714  0.89268544    -0.03200
C1010       C  0.64379875  0.68820743  0.85904670     0.02200
C1011       C  0.68289265  0.63170989  0.90769340     0.09100
N1012       N  0.70254535  0.67578963  0.97118907     0.65400
H1013       H  0.67851010  0.71911675  0.95314155     0.18400
N1014       N  0.62482336  0.69161910  0.81903480     0.75900
H1015       H  0.64843914  0.64842199  0.83880739     0.09900
C1016       C  0.66777379  0.61199268  0.93103744     0.03600
C1017       C  0.67612926  0.58634434  0.92989137    -0.05100
C1018       C  0.69949257  0.57960761  0.90574685    -0.23500
C1019       C  0.71447268  0.59932170  0.88148774     0.12800
C1020       C  0.70597457  0.62502001  0.88239440    -0.12700
N1021       N  0.64407585  0.61742738  0.95752443     0.64500
H1022       H  0.66450469  0.57181884  0.94874370     0.12300
N1023       N  0.73799114  0.59395518  0.85414111     0.61100
H1024       H  0.71708798  0.63956909  0.86255588     0.08500
O1025       O  0.60281603  0.68218404  0.82743107    -0.40300
O1026       O  0.63237827  0.69433938  0.77157149    -0.39500
O1027       O  0.72476913  0.68407822  0.96023397    -0.39500
O1028       O  0.69589616  0.67395226  0.01934195    -0.37200
O1029       O  0.73757740  0.59244913  0.80415648    -0.38100
O1030       O  0.75871434  0.60035357  0.87607496    -0.34300
O1031       O  0.62346721  0.61064418  0.93559404    -0.35700
O1032       O  0.64433590  0.61950343  0.00739498    -0.40000
C1033       C  0.65800191  0.89740300  0.97383256    -0.13700
C1034       C  0.67745532  0.87898525  0.96584391     0.16700
C1035       C  0.70319442  0.88737337  0.96388996     0.03000
C1036       C  0.70905243  0.91350860  0.97067634    -0.12200
C1037       C  0.68967476  0.93211140  0.97855475    -0.03200
C1038       C  0.66382512  0.92365958  0.98036310     0.02200
C1039       C  0.66954217  0.85232574  0.95154881     0.09100
N1040       N  0.72387442  0.87022239  0.95210887     0.65400
H1041       H  0.72869554  0.91914438  0.96825739     0.18400
N1042       N  0.64294476  0.94088167  0.98994811     0.75900
H1043       H  0.63842752  0.89150305  0.97418207     0.09900
C1044       C  0.67289756  0.83050936  0.98477903     0.03600
C1045       C  0.66319092  0.80635769  0.96953651    -0.05100
C1046       C  0.64970017  0.80360769  0.92196467    -0.23500
C1047       C  0.64619596  0.82547097  0.88921608     0.12800
C1048       C  0.65611873  0.84939694  0.90400470    -0.12700
N1049       N  0.68497251  0.83232976  0.03521262     0.64500
H1050       H  0.66529331  0.79017192  0.99563978     0.12300
N1051       N  0.63374927  0.82381535  0.83914641     0.61100
H1052       H  0.65321474  0.86564939  0.87856741     0.08500
O1053       O  0.63328461  0.94129633  0.03605383    -0.40300
O1054       O  0.62897833  0.94722623  0.95130801    -0.39500
O1055       O  0.73295677  0.87027172  0.90548580    -0.39500
O1056       O  0.73833493  0.86350427  0.98965253    -0.37200
O1057       O  0.64773606  0.82171483  0.79826130    -0.38100
O1058       O  0.61179257  0.83382029  0.83442431    -0.34300
O1059       O  0.67086970  0.83237546  0.07622957    -0.35700
O1060       O  0.70771135  0.82418393  0.03920343    -0.40000
C1061       C  0.34969487  0.84067039  0.89571546    -0.13700
C1062       C  0.33302618  0.84525520  0.93830231     0.16700
C1063       C  0.32388805  0.82383582  0.96822656     0.03000
C1064       C  0.33349822  0.79904198  0.95805219    -0.12200
C1065       C  0.35201746  0.79484878  0.91836018    -0.03200
C1066       C  0.35925781  0.81598765  0.88551468     0.02200
C1067       C  0.32375397  0.87212645  0.94605577     0.09100
N1068       N  0.30592181  0.82666630  0.01092742     0.65400
H1069       H  0.32742282  0.78325489  0.98338600     0.18400
N1070       N  0.37668838  0.81324710  0.84198041     0.75900
H1071       H  0.35555009  0.85649614  0.87012698     0.09900
C1072       C  0.34056090  0.89326034  0.95401264     0.03600
C1073       C  0.33088793  0.91842148  0.95520545    -0.05100
C1074       C  0.30471293  0.92343563  0.94822648    -0.23500
C1075       C  0.28803800  0.90230655  0.93903190     0.12800
C1076       C  0.29773009  0.87715077  0.93796188    -0.12700
N1077       N  0.36743694  0.88989978  0.96252062     0.64500
H1078       H  0.34407165  0.93412075  0.96214742     0.12300
N1079       N  0.26121329  0.90551905  0.92997880     0.61100
H1080       H  0.28482252  0.86142965  0.92937163     0.08500
O1081       O  0.39978047  0.81954686  0.84917352    -0.40300
O1082       O  0.36781382  0.81458934  0.79555194    -0.39500
O1083       O  0.28305941  0.81949492  0.00361762    -0.39500
O1084       O  0.31448435  0.82636801  0.05763911    -0.37200
O1085       O  0.25319344  0.90317066  0.88309995    -0.38100
O1086       O  0.24598557  0.90040998  0.96783541    -0.34300
O1087       O  0.38271717  0.89577092  0.92518364    -0.35700
O1088       O  0.37542776  0.89128812  0.00957302    -0.40000
C1089       C  0.30268105  0.61703120  0.95574776    -0.13700
C1090       C  0.32692931  0.62127068  0.93335406     0.16700
C1091       C  0.34204983  0.59973000  0.91838051     0.03000
C1092       C  0.33204431  0.57476703  0.92351954    -0.12200
C1093       C  0.30731227  0.57060116  0.94430619    -0.03200
C1094       C  0.29276908  0.59216023  0.96137140     0.02200
C1095       C  0.33670102  0.64810610  0.93298834     0.09100
N1096       N  0.36735638  0.60244924  0.89672152     0.65400
H1097       H  0.34353659  0.55875985  0.91054144     0.18400
N1098       N  0.26800348  0.58966247  0.98548754     0.75900
H1099       H  0.29155140  0.63306362  0.96999928     0.09900
C1100       C  0.32422571  0.66853742  0.90591810     0.03600
C1101       C  0.33359083  0.69376630  0.90965157    -0.05100
C1102       C  0.35505874  0.69922438  0.94067257    -0.23500
C1103       C  0.36629977  0.67908858  0.97077222     0.12800
C1104       C  0.35706492  0.65389011  0.96665187    -0.12700
N1105       N  0.30257197  0.66431140  0.87271695     0.64500
H1106       H  0.32489048  0.70863323  0.88652835     0.12300
N1107       N  0.38682399  0.68356877  0.00676796     0.61100
H1108       H  0.36558859  0.63896212  0.99019061     0.08500
O1109       O  0.24870605  0.59556330  0.95798863    -0.40300
O1110       O  0.26634048  0.59174086  0.03530293    -0.39500
O1111       O  0.38614532  0.59671081  0.92586484    -0.39500
O1112       O  0.37014068  0.60065579  0.84706734    -0.37200
O1113       O  0.38147202  0.68481486  0.05565141    -0.38100
O1114       O  0.40908229  0.67640787  0.99325912    -0.34300
O1115       O  0.28070948  0.67097298  0.88985209    -0.35700
O1116       O  0.30630215  0.66380139  0.82317461    -0.40000
C1117       C  0.52786909  0.77394385  0.87766342    -0.13700
C1118       C  0.51586368  0.75263320  0.90123878     0.16700
C1119       C  0.53120459  0.73211352  0.92053642     0.03000
C1120       C  0.55789433  0.73367135  0.91702800    -0.12200
C1121       C  0.56993480  0.75564422  0.89610611    -0.03200
C1122       C  0.55459806  0.77603865  0.87666707     0.02200
C1123       C  0.48746364  0.75199985  0.90307489     0.09100
N1124       N  0.52053025  0.71016357  0.94712832     0.65400
H1125       H  0.56909978  0.71814710  0.93283843     0.18400
N1126       N  0.56532266  0.79948061  0.85694639     0.75900
H1127       H  0.51663290  0.78911180  0.86080606     0.09900
C1128       C  0.47242392  0.77292718  0.92157619     0.03600
C1129       C  0.44578375  0.77094027  0.92271969    -0.05100
C1130       C  0.43348292  0.74829231  0.90721705    -0.23500
C1131       C  0.44845704  0.72751226  0.88806354     0.12800
C1132       C  0.47508704  0.72998968  0.88438401    -0.12700
N1133       N  0.48341165  0.79581235  0.94286684     0.64500
H1134       H  0.43483027  0.78687134  0.93820161     0.12300
N1135       N  0.43758008  0.70332565  0.87378659     0.61100
H1136       H  0.48608476  0.71442628  0.86782770     0.08500
O1137       O  0.56437515  0.81890004  0.88681922    -0.40300
O1138       O  0.56594070  0.80304896  0.80737445    -0.39500
O1139       O  0.52114471  0.68876826  0.92356465    -0.39500
O1140       O  0.52025236  0.71014834  0.99721857    -0.37200
O1141       O  0.43379307  0.69893419  0.82527759    -0.38100
O1142       O  0.44147478  0.68440815  0.90434926    -0.34300
O1143       O  0.48150393  0.81639307  0.91623064    -0.35700
O1144       O  0.48498366  0.79744494  0.99269236    -0.40000
C1145       C  0.41959189  0.56766034  0.68748687    -0.13700
C1146       C  0.39919392  0.58258778  0.66877854     0.16700
C1147       C  0.40450397  0.60698958  0.64628300     0.03000
C1148       C  0.42977030  0.61560325  0.64235537    -0.12200
C1149       C  0.45046546  0.60082126  0.66099916    -0.03200
C1150       C  0.44504813  0.57621511  0.68333751     0.02200
C1151       C  0.37267297  0.57282326  0.67583736     0.09100
N1152       N  0.38481267  0.62323325  0.62550083     0.65400
H1153       H  0.43302989  0.63430603  0.62406938     0.18400
N1154       N  0.46463268  0.55932778  0.70204252     0.75900
H1155       H  0.41571629  0.54913040  0.70616248     0.09900
C1156       C  0.36486097  0.54873253  0.65577713     0.03600
C1157       C  0.33978705  0.54034409  0.66404559    -0.05100
C1158       C  0.32188013  0.55525315  0.69205552    -0.23500
C1159       C  0.32983732  0.57897125  0.71374444     0.12800
C1160       C  0.35516332  0.58734919  0.70584903    -0.12700
N1161       N  0.38147738  0.53278971  0.62476148     0.64500
H1162       H  0.33419123  0.52210602  0.64690851     0.12300
N1163       N  0.31293708  0.59491872  0.74400399     0.61100
H1164       H  0.36118881  0.60526439  0.72339184     0.08500
O1165       O  0.46796656  0.55765819  0.75151014    -0.40300
O1166       O  0.47029959  0.54012462  0.67373434    -0.39500
O1167       O  0.37869274  0.64310730  0.65137839    -0.39500
O1168       O  0.38156777  0.62339698  0.57591679    -0.37200
O1169       O  0.31466264  0.59433174  0.79394563    -0.38100
O1170       O  0.30441533  0.61509984  0.72223318    -0.34300
O1171       O  0.39019910  0.51253551  0.64596436    -0.35700
O1172       O  0.37888944  0.53328605  0.57500519    -0.40000
C1173       C  0.57879315  0.56628257  0.64361422    -0.13700
C1174       C  0.59685105  0.57914131  0.67480315     0.16700
C1175       C  0.58888403  0.60064551  0.70491545     0.03000
C1176       C  0.56378701  0.60958676  0.70104880    -0.12200
C1177       C  0.54597168  0.59737635  0.66848378    -0.03200
C1178       C  0.55328454  0.57479425  0.64132795     0.02200
C1179       C  0.62415946  0.57136324  0.67105626     0.09100
N1180       N  0.60544149  0.61315608  0.74154091     0.65400
H1181       H  0.55825514  0.62645518  0.72346724     0.18400
N1182       N  0.53551846  0.56011646  0.61115250     0.75900
H1183       H  0.58456889  0.55002948  0.62012826     0.09900
C1184       C  0.63244721  0.54592212  0.68086853     0.03600
C1185       C  0.65837554  0.53967508  0.67557537    -0.05100
C1186       C  0.67672347  0.55825898  0.66081174    -0.23500
C1187       C  0.66831400  0.58361955  0.64962268     0.12800
C1188       C  0.64217244  0.58977299  0.65408514    -0.12700
N1189       N  0.61538928  0.52622780  0.69930303     0.64500
H1190       H  0.66408727  0.52030139  0.68457113     0.12300
N1191       N  0.68559206  0.60375150  0.63470691     0.61100
H1192       H  0.63599464  0.60895055  0.64453689     0.08500
O1193       O  0.52754234  0.53919531  0.63100049    -0.40300
O1194       O  0.53589658  0.56252358  0.56128066    -0.39500
O1195       O  0.61322459  0.63559966  0.73052665    -0.39500
O1196       O  0.60376020  0.60657543  0.78974243    -0.37200
O1197       O  0.68626867  0.61072883  0.58663622    -0.38100
O1198       O  0.69150433  0.61996627  0.66966736    -0.34300
O1199       O  0.60931665  0.50861259  0.66743867    -0.35700
O1200       O  0.61508422  0.52119834  0.74836718    -0.40000
C1201       C  0.41206545  0.89268335  0.74855645    -0.13700
C1202       C  0.40812284  0.91452866  0.71699407     0.16700
C1203       C  0.42966293  0.92721499  0.69414147     0.03000
C1204       C  0.45421891  0.91653297  0.69934290    -0.12200
C1205       C  0.45767096  0.89341829  0.72706909    -0.03200
C1206       C  0.43649340  0.88190192  0.75327430     0.02200
C1207       C  0.38140238  0.92393066  0.71183196     0.09100
N1208       N  0.42720262  0.94991358  0.66243230     0.65400
H1209       H  0.47010607  0.92537126  0.67910295     0.18400
N1210       N  0.43907307  0.85899930  0.78429023     0.75900
H1211       H  0.39609514  0.88366920  0.76861117     0.09900
C1212       C  0.36191411  0.90885570  0.68850564     0.03600
C1213       C  0.33634567  0.91721460  0.68982487    -0.05100
C1214       C  0.32958241  0.94063162  0.71335340    -0.23500
C1215       C  0.34911695  0.95549021  0.73747564     0.12800
C1216       C  0.37462057  0.94686895  0.73695317    -0.12700
N1217       N  0.36765217  0.88564448  0.66071544     0.64500
H1218       H  0.32186844  0.90569003  0.67073866     0.12300
N1219       N  0.34378659  0.97928852  0.76336861     0.61100
H1220       H  0.38910776  0.95799598  0.75680235     0.08500
O1221       O  0.43170903  0.83804595  0.76438682    -0.40300
O1222       O  0.43929684  0.86107260  0.83418338    -0.39500
O1223       O  0.43572916  0.97078795  0.68072425    -0.39500
O1224       O  0.42632144  0.94728944  0.61271810    -0.37200
O1225       O  0.34275346  0.97939549  0.81345328    -0.38100
O1226       O  0.34992517  0.99983531  0.73946890    -0.34300
O1227       O  0.36146011  0.86445792  0.68204539    -0.35700
O1228       O  0.36947511  0.88680141  0.61077345    -0.40000
C1229       C  0.58308871  0.92698414  0.74864489    -0.13700
C1230       C  0.60408503  0.91312272  0.72865686     0.16700
C1231       C  0.59984316  0.88827809  0.70808594     0.03000
C1232       C  0.57497091  0.87842278  0.70576760    -0.12200
C1233       C  0.55349431  0.89250558  0.72377635    -0.03200
C1234       C  0.55797459  0.91717976  0.74605232     0.02200
C1235       C  0.63015758  0.92453989  0.73224146     0.09100
N1236       N  0.62014605  0.87284776  0.68679315     0.65400
H1237       H  0.57273943  0.85966163  0.68866867     0.18400
N1238       N  0.53776287  0.93307155  0.76592712     0.75900
H1239       H  0.58616437  0.94552202  0.76637168     0.09900
C1240       C  0.63650339  0.94854584  0.70879074     0.03600
C1241       C  0.66136601  0.95833936  0.71341713    -0.05100
C1242       C  0.68033398  0.94503471  0.74175534    -0.23500
C1243       C  0.67355266  0.92175188  0.76766281     0.12800
C1244       C  0.64868572  0.91171731  0.76257039    -0.12700
N1245       N  0.61843829  0.96312349  0.67861658     0.64500
H1246       H  0.66588512  0.97635657  0.69380966     0.12300
N1247       N  0.69091627  0.90840407  0.80150669     0.61100
H1248       H  0.64376727  0.89423219  0.78294932     0.08500
O1249       O  0.53144798  0.95247246  0.73857289    -0.40300
O1250       O  0.53427215  0.93385658  0.81553681    -0.39500
O1251       O  0.62741811  0.85354972  0.71339944    -0.39500
O1252       O  0.62280000  0.87222349  0.63698162    -0.37200
O1253       O  0.68851929  0.91156408  0.85091809    -0.38100
O1254       O  0.70065582  0.88765580  0.78497402    -0.34300
O1255       O  0.60860682  0.98288632  0.69958001    -0.35700
O1256       O  0.62004195  0.96218879  0.62865758    -0.40000
C1257       C  0.48513370  0.77750677  0.63711089    -0.13700
C1258       C  0.50506422  0.76217670  0.65663419     0.16700
C1259       C  0.52593225  0.77398400  0.68240242     0.03000
C1260       C  0.52532188  0.80035284  0.69247981    -0.12200
C1261       C  0.50434336  0.81549273  0.67691784    -0.03200
C1262       C  0.48444465  0.80393419  0.64736430     0.02200
C1263       C  0.50309946  0.73398506  0.65064131     0.09100
N1264       N  0.54745604  0.75967164  0.70138511     0.65400
H1265       H  0.54077050  0.80863414  0.71402181     0.18400
N1266       N  0.46338048  0.81827769  0.62656102     0.75900
H1267       H  0.46997167  0.76895912  0.61509413     0.09900
C1268       C  0.48187555  0.72004209  0.67095002     0.03600
C1269       C  0.48146249  0.69325625  0.66740292    -0.05100
C1270       C  0.50199764  0.67966036  0.64446904    -0.23500
C1271       C  0.52274138  0.69387256  0.62193019     0.12800
C1272       C  0.52278645  0.72080280  0.62437456    -0.12700
N1273       N  0.46135631  0.73231322  0.69908146     0.64500
H1274       H  0.46552201  0.68309170  0.68518899     0.12300
N1275       N  0.54427648  0.68181296  0.59702452     0.61100
H1276       H  0.53853141  0.73135493  0.60690562     0.08500
O1277       O  0.44177822  0.81583417  0.64914404    -0.40300
O1278       O  0.46396648  0.82420257  0.57790192    -0.39500
O1279       O  0.56898342  0.76321260  0.67904522    -0.39500
O1280       O  0.54701275  0.75200794  0.74899397    -0.37200
O1281       O  0.54518469  0.68158693  0.54694299    -0.38100
O1282       O  0.56516764  0.68135543  0.62207513    -0.34300
O1283       O  0.43948383  0.73309690  0.67787151    -0.35700
O1284       O  0.46270896  0.73344567  0.74898733    -0.40000
C1285       C  0.08002236  0.56957394  0.65107121    -0.13700
C1286       C  0.09839207  0.57867209  0.68662566     0.16700
C1287       C  0.09165080  0.59884729  0.72158516     0.03000
C1288       C  0.06695921  0.60896104  0.72103763    -0.12200
C1289       C  0.04855382  0.60034009  0.68508638    -0.03200
C1290       C  0.05519044  0.58008444  0.65004676     0.02200
C1291       C  0.12492952  0.56858790  0.68348143     0.09100
N1292       N  0.10941438  0.60981868  0.75798044     0.65400
H1293       H  0.06238254  0.62408274  0.74881002     0.18400
N1294       N  0.03778160  0.57034501  0.61166804     0.75900
H1295       H  0.08516158  0.55494431  0.62286337     0.09900
C1296       C  0.13102588  0.54217885  0.68909625     0.03600
C1297       C  0.15670214  0.53450899  0.69093092    -0.05100
C1298       C  0.17668929  0.55249780  0.68538198    -0.23500
C1299       C  0.17043427  0.57847748  0.67467414     0.12800
C1300       C  0.14475604  0.58620969  0.67378811    -0.12700
N1301       N  0.11182518  0.52262271  0.69363271     0.64500
H1302       H  0.16082691  0.51450146  0.69713705     0.12300
N1303       N  0.18949011  0.59748789  0.66361317     0.61100
H1304       H  0.14032797  0.60601965  0.66552579     0.08500
O1305       O  0.02833331  0.54827068  0.61973178    -0.40300
O1306       O  0.04010016  0.57822684  0.56437964    -0.39500
O1307       O  0.11867155  0.63170037  0.74693089    -0.39500
O1308       O  0.10745958  0.60338102  0.80621626    -0.37200
O1309       O  0.19467622  0.60242195  0.61560290    -0.38100
O1310       O  0.19310479  0.61479260  0.69772162    -0.34300
O1311       O  0.10746200  0.50898811  0.65335023    -0.35700
O1312       O  0.10746275  0.51302016  0.73893517    -0.40000
C1313       C  0.85654083  0.59472449  0.67210609    -0.13700
C1314       C  0.87596401  0.57769188  0.65620902     0.16700
C1315       C  0.86926820  0.55194072  0.64424640     0.03000
C1316       C  0.84360233  0.54431424  0.64626003    -0.12200
C1317       C  0.82400301  0.56159902  0.66029358    -0.03200
C1318       C  0.83076194  0.58712464  0.67357459     0.02200
C1319       C  0.90297537  0.58672472  0.65769782     0.09100
N1320       N  0.88783452  0.53309559  0.62859378     0.65400
H1321       H  0.83910434  0.52474671  0.63606451     0.18400
N1322       N  0.81216679  0.60586857  0.68900050     0.75900
H1323       H  0.86134864  0.61391130  0.68440320     0.09900
C1324       C  0.91117401  0.61027345  0.63417106     0.03600
C1325       C  0.93639521  0.61848444  0.64060081    -0.05100
C1326       C  0.95379273  0.60419832  0.67068126    -0.23500
C1327       C  0.94576717  0.58086566  0.69433472     0.12800
C1328       C  0.92050174  0.57255289  0.68801018    -0.12700
N1329       N  0.89456116  0.62637637  0.60365152     0.64500
H1330       H  0.94231838  0.63661181  0.62251095     0.12300
N1331       N  0.96226061  0.56592858  0.72732596     0.61100
H1332       H  0.91429903  0.55531189  0.70891158     0.08500
O1333       O  0.80643146  0.62309030  0.65559694    -0.40300
O1334       O  0.80992557  0.61100095  0.73773678    -0.39500
O1335       O  0.89362194  0.51568079  0.66160156    -0.39500
O1336       O  0.88997580  0.52814044  0.57977841    -0.37200
O1337       O  0.97120321  0.54521678  0.70877868    -0.38100
O1338       O  0.95974843  0.56794720  0.77701245    -0.34300
O1339       O  0.88657796  0.64699964  0.62445902    -0.35700
O1340       O  0.89669793  0.62557120  0.55375572    -0.40000
C1341       C  0.09116475  0.89826378  0.68214073    -0.13700
C1342       C  0.10078991  0.91278324  0.72390232     0.16700
C1343       C  0.08346554  0.92136619  0.76389442     0.03000
C1344       C  0.05760516  0.91366295  0.76316130    -0.12200
C1345       C  0.04846516  0.89772237  0.72296027    -0.03200
C1346       C  0.06546169  0.89045951  0.68152980     0.02200
C1347       C  0.12806768  0.92120558  0.72045216     0.09100
N1348       N  0.09172284  0.93683305  0.80716219     0.65400
H1349       H  0.04507896  0.91894763  0.79564782     0.18400
N1350       N  0.05726595  0.87489798  0.63839153     0.75900
H1351       H  0.10368027  0.89300728  0.64992053     0.09900
C1352       C  0.14918643  0.90389599  0.71911383     0.03600
C1353       C  0.17431994  0.91338887  0.71438317    -0.05100
C1354       C  0.17909108  0.93980790  0.70836483    -0.23500
C1355       C  0.15773103  0.95675036  0.70483939     0.12800
C1356       C  0.13272373  0.94736520  0.71170904    -0.12700
N1357       N  0.14597511  0.87663419  0.72288434     0.64500
H1358       H  0.19008343  0.89995565  0.71550818     0.12300
N1359       N  0.16047033  0.98350612  0.69288902     0.61100
H1360       H  0.11682787  0.96051826  0.70877100     0.08500
O1361       O  0.06357340  0.85142387  0.63840997    -0.40300
O1362       O  0.05293433  0.88583374  0.59449343    -0.39500
O1363       O  0.08474880  0.96011838  0.80829004    -0.39500
O1364       O  0.09675370  0.92568168  0.85048364    -0.37200
O1365       O  0.15685059  0.99074817  0.64560991    -0.38100
O1366       O  0.15631724  0.99938309  0.72972272    -0.34300
O1367       O  0.14854108  0.86359542  0.68100023    -0.35700
O1368       O  0.15088307  0.86588821  0.76668956    -0.40000
C1369       C  0.90547464  0.89572541  0.75334426    -0.13700
C1370       C  0.90318770  0.91954581  0.72785825     0.16700
C1371       C  0.92596881  0.93264600  0.71244738     0.03000
C1372       C  0.95010055  0.92087340  0.71914954    -0.12200
C1373       C  0.95241723  0.89638099  0.74266847    -0.03200
C1374       C  0.92950287  0.88422209  0.76145540     0.02200
C1375       C  0.87705345  0.93131543  0.72615935     0.09100
N1376       N  0.92537355  0.95769440  0.68884671     0.65400
H1377       H  0.96690901  0.93083899  0.70511768     0.18400
N1378       N  0.92969116  0.86051629  0.79042991     0.75900
H1379       H  0.88854215  0.88626884  0.76846264     0.09900
C1380       C  0.85613572  0.91986103  0.69932198     0.03600
C1381       C  0.83116141  0.92947921  0.70632598    -0.05100
C1382       C  0.82627584  0.95059865  0.73923950    -0.23500
C1383       C  0.84713595  0.96193284  0.76625511     0.12800
C1384       C  0.87206573  0.95208980  0.75986904    -0.12700
N1385       N  0.85963830  0.89917239  0.66287317     0.64500
H1386       H  0.81567285  0.92076956  0.68473806     0.12300
N1387       N  0.84376263  0.98310633  0.80147620     0.61100
H1388       H  0.88740274  0.96027850  0.78234251     0.08500
O1389       O  0.92284975  0.84038367  0.76655659    -0.40300
O1390       O  0.92655130  0.86144783  0.84014051    -0.39500
O1391       O  0.93183660  0.97665559  0.71689082    -0.39500
O1392       O  0.92819653  0.95937667  0.63915168    -0.37200
O1393       O  0.84340567  0.97854102  0.85074874    -0.38100
O1394       O  0.85104671  0.00504131  0.78566677    -0.34300
O1395       O  0.85247612  0.87693085  0.67704190    -0.35700
O1396       O  0.85992393  0.90456700  0.61395189    -0.40000
C1397       C  0.98428675  0.72048086  0.75382304    -0.13700
C1398       C  0.00519339  0.73464658  0.73464511     0.16700
C1399       C  0.02617639  0.72147958  0.71118246     0.03000
C1400       C  0.02473500  0.69490902  0.70364557    -0.12200
C1401       C  0.00264629  0.68098585  0.71811223    -0.03200
C1402       C  0.98241799  0.69409150  0.74463779     0.02200
C1403       C  0.00416051  0.76294158  0.73959327     0.09100
N1404       N  0.04849810  0.73454825  0.69156161     0.65400
H1405       H  0.04060795  0.68540593  0.68408873     0.18400
N1406       N  0.95939347  0.68156532  0.76166496     0.75900
H1407       H  0.96884122  0.73008889  0.77452856     0.09900
C1408       C  0.98293870  0.77742799  0.72115967     0.03600
C1409       C  0.98277307  0.80403861  0.72641347    -0.05100
C1410       C  0.00332972  0.81687869  0.74971980    -0.23500
C1411       C  0.02408375  0.80237563  0.77023218     0.12800
C1412       C  0.02409386  0.77558131  0.76554467    -0.12700
N1413       N  0.96181697  0.76594590  0.69435000     0.64500
H1414       H  0.96689957  0.81467557  0.71009128     0.12300
N1415       N  0.04527154  0.81406617  0.79635474     0.61100
H1416       H  0.03977058  0.76464370  0.78212846     0.08500
O1417       O  0.93968600  0.68446536  0.73341024    -0.40300
O1418       O  0.95632397  0.67737191  0.81071592    -0.39500
O1419       O  0.06941388  0.73121321  0.71568317    -0.39500
O1420       O  0.04937204  0.74034005  0.64286660    -0.37200
O1421       O  0.04591944  0.81289401  0.84638919    -0.38100
O1422       O  0.06624663  0.81589684  0.77111210    -0.34300
O1423       O  0.94048356  0.76463426  0.71846103    -0.35700
O1424       O  0.96185456  0.76673202  0.64428799    -0.40000
loop_ 
_geom_bond_atom_site_label_1 
_geom_bond_atom_site_label_2 
_geom_bond_distance 
_geom_bond_site_symmetry_2 
_ccdc_geom_bond_type 
C1            N2   1.355       .  A
C1            N6   1.373   1_655  A
C1         C1373   1.504       .  S
N2            C3   1.358   1_655  A
C3            N4   1.349       .  A
C3         C1410   1.468       .  S
N4            C5   1.352       .  A
C5            N6   1.370       .  A
C5         C1345   1.477       .  S
C7            N8   1.360       .  A
C7           N12   1.358       .  A
C7         C1289   1.480       .  S
N8            C9   1.354       .  A
C9           N10   1.349   1_455  A
C9         C1401   1.483       .  S
N10          C11   1.360       .  A
C11          N12   1.362   1_655  A
C11        C1326   1.464       .  S
C13          N14   1.362       .  A
C13          N18   1.360       .  A
C13        C1233   1.501       .  S
N14          C15   1.368       .  A
C15          N16   1.357       .  A
C15        C1205   1.466       .  S
N16          C17   1.349       .  A
C17          N18   1.355       .  A
C17        C1261   1.478       .  S
C19          N20   1.363       .  A
C19          N24   1.361       .  A
C19        C1149   1.491       .  S
N20          C21   1.355       .  A
C21          N22   1.348       .  A
C21        C1270   1.486       .  S
N22          C23   1.361       .  A
C23          N24   1.363       .  A
C23        C1177   1.468       .  S
In25         O27   2.230       .  S
In25         O28   2.245       .  S
In25         O36   2.231       .  S
In25         O30   2.259       .  S
In25         O32   2.255       .  S
In25         O33   2.241       .  S
In25         O34   2.228       .  S
In25         O37   2.245       .  S
C26        C1354   1.489       .  S
C26          O32   1.274       .  A
C26          O34   1.262       .  A
O27          C35   1.262       .  A
O28          C35   1.268       .  A
C29        C1214   1.484       .  S
C29          O36   1.262       .  A
C29          O30   1.273       .  A
C31         C302   1.469       .  S
C31          O33   1.266       .  A
C31          O37   1.262       .  A
C35         C150   1.463       .  S
In38         O40   2.221       .  S
In38         O41   2.258       .  S
In38         O49   2.183       .  S
In38         O43   2.254       .  S
In38         O45   2.244       .  S
In38         O46   2.261       .  S
In38         O47   2.197       .  S
In38         O50   2.223       .  S
C39        C1298   1.477       .  S
C39          O45   1.267       .  A
C39          O47   1.264       .  A
O40          C48   1.258       .  A
O41          C48   1.267       .  A
C42        C1158   1.474       .  S
C42          O49   1.264       .  A
C42          O43   1.268       .  A
C44         C112   1.462       .  S
C44          O46   1.266       .  A
C44          O50   1.258       .  A
C48         C247   1.459       .  S
In51         O53   2.225       .  S
In51         O54   2.257   1_565  S
In51         O62   2.242       .  S
In51         O56   2.244       .  S
In51         O58   2.274       .  S
In51         O59   2.267   1_565  S
In51         O60   2.215       .  S
In51         O63   2.231       .  S
C52        C1242   1.484       .  S
C52          O58   1.268       .  A
C52          O60   1.263       .  A
O53          C61   1.258       .  A
O54          C61   1.266   1_545  A
C55        C1382   1.484       .  S
C55          O62   1.262       .  A
C55          O56   1.269       .  A
C57         C273   1.465   1_565  S
C57          O59   1.266   1_565  A
C57          O63   1.258       .  A
C61          C95   1.464   1_565  S
In64         O66   2.230       .  S
In64         O67   2.268       .  S
In64         O75   2.199       .  S
In64         O69   2.260       .  S
In64         O71   2.267       .  S
In64         O72   2.266       .  S
In64         O73   2.190       .  S
In64         O76   2.234       .  S
C65        C1186   1.482       .  S
C65          O71   1.268       .  A
C65          O73   1.263       .  A
O66          C74   1.259       .  A
O67          C74   1.267       .  A
C68        C1317   1.481       .  S
C68          O75   1.264       .  A
C68          O69   1.268       .  A
C70         C121   1.464       .  S
C70          O72   1.266       .  A
C70          O76   1.259       .  A
C74         C264   1.465       .  S
C77          N78   1.368       .  A
C77          N82   1.353       .  A
C77        C1065   1.492       .  S
N78          C79   1.370       .  A
C79          N80   1.354       .  A
C79        C1102   1.479       .  S
N80          C81   1.351       .  A
C81          N82   1.358       .  A
C81        C1130   1.470       .  S
C83          N84   1.356       .  A
C83          N88   1.368       .  A
C83        C1046   1.481       .  S
N84          C85   1.354       .  A
C85          N86   1.359       .  A
C85        C1121   1.475       .  S
N86          C87   1.356       .  A
C87          N88   1.368       .  A
C87        C1009   1.494       .  S
In89         O91   2.234   1_546  S
In89         O92   2.250   1_556  S
In89        O100   2.213   1_545  S
In89         O94   2.293   1_545  S
In89         O96   2.249       .  S
In89         O97   2.251   1_545  S
In89         O98   2.248       .  S
In89        O101   2.238       .  S
C90         C990   1.491       .  S
C90          O96   1.272       .  A
C90          O98   1.261       .  A
O91          C99   1.260   1_565  A
O92          C99   1.266       .  A
C93        C1037   1.496       .  S
C93         O100   1.263       .  A
C93          O94   1.271       .  A
C95          O97   1.266   1_545  A
C95         O101   1.261       .  A
C99         C209   1.464       .  S
In102       O104   2.238       .  S
In102       O105   2.249       .  S
In102       O113   2.193       .  S
In102       O107   2.285       .  S
In102       O109   2.243       .  S
In102       O110   2.260   1_556  S
In102       O111   2.227       .  S
In102       O114   2.225   1_556  S
C103       C1093   1.483       .  S
C103        O109   1.271       .  A
C103        O111   1.261       .  A
O104        C112   1.260       .  A
O105        C112   1.265       .  A
C106        C962   1.488       .  S
C106        O113   1.262       .  A
C106        O107   1.269       .  A
C108        C163   1.463       .  S
C108        O110   1.265       .  A
C108        O114   1.258       .  A
In115       O117   2.233       .  S
In115       O118   2.262       .  S
In115       O126   2.242       .  S
In115       O120   2.252       .  S
In115       O122   2.250       .  S
In115       O123   2.247       .  S
In115       O124   2.244       .  S
In115       O127   2.226       .  S
C116       C1018   1.487       .  S
C116        O122   1.272       .  A
C116        O124   1.263       .  A
O117        C125   1.258   1_556  A
O118        C125   1.266   1_556  A
C119        C934   1.486       .  S
C119        O126   1.262       .  A
C119        O120   1.271       .  A
C121        O123   1.268       .  A
C121        O127   1.261       .  A
C125        C226   1.467       .  S
C128        N129   1.365       .  A
C128        N133   1.351       .  A
C128        C953   1.475       .  S
N129        C130   1.366       .  A
C130        N131   1.365       .  A
C130        C878   1.490       .  S
N131        C132   1.354       .  A
C132        N133   1.353       .  A
C132        C897   1.482       .  S
C134        N135   1.367       .  A
C134        N139   1.358       .  A
C134        C981   1.477       .  S
N135        C136   1.367       .  A
C136        N137   1.364       .  A
C136        C925   1.491   1_554  S
N137        C138   1.354       .  A
C138        N139   1.346       .  A
C138        C906   1.479       .  S
In140       O142   2.229   1_565  S
In140       O143   2.245       .  S
In140       O151   2.235       .  S
In140       O145   2.247       .  S
In140       O147   2.255   1_565  S
In140       O148   2.266   1_566  S
In140       O149   2.242   1_565  S
In140       O152   2.231   1_556  S
C141        C869   1.481       .  S
C141        O147   1.270       .  A
C141        O149   1.262       .  A
O142        C150   1.261   1_545  A
O143        C150   1.267       .  A
C144       C1074   1.487       .  S
C144        O151   1.261       .  A
C144        O145   1.272       .  A
C146        C196   1.468       .  S
C146        O148   1.267       .  A
C146        O152   1.258   1_545  A
In153       O155   2.236       .  S
In153       O156   2.245       .  S
In153       O164   2.227       .  S
In153       O158   2.245       .  S
In153       O160   2.280       .  S
In153       O161   2.249       .  S
In153       O162   2.189       .  S
In153       O165   2.219       .  S
C154        C841   1.483       .  S
C154        O160   1.271       .  A
C154        O162   1.263       .  A
O155        C163   1.261       .  A
O156        C163   1.265       .  A
C157        C813   1.480       .  S
C157        O164   1.261       .  A
C157        O158   1.271       .  A
C159        C251   1.459       .  S
C159        O161   1.267       .  A
C159        O165   1.261       .  A
C166        N167   1.363       .  A
C166        N171   1.358       .  A
C166        C766   1.477       .  S
N167        C168   1.365       .  A
C168        N169   1.362       .  A
C168        C729   1.476       .  S
N169        C170   1.348       .  A
C170        N171   1.355       .  A
C170        C785   1.483       .  S
C172        N173   1.356       .  A
C172        N177   1.361       .  A
C172        C850   1.480       .  S
N173        C174   1.360       .  A
C174        N175   1.365       .  A
C174        C701   1.474       .  S
N175        C176   1.354       .  A
C176        N177   1.356       .  A
C176        C794   1.488       .  S
C178        N179   1.359       .  A
C178        N183   1.356       .  A
C178        C645   1.482       .  S
N179        C180   1.364   1_655  A
C180        N181   1.361       .  A
C180        C617   1.457       .  S
N181        C182   1.350   1_455  A
C182        N183   1.354       .  A
C182        C682   1.481       .  S
C184        N185   1.359       .  A
C184        N189   1.356   1_455  A
C184        C822   1.492       .  S
N185        C186   1.359   1_455  A
C186        N187   1.351       .  A
C186        C673   1.488       .  S
N187        C188   1.358       .  A
C188        N189   1.364       .  A
C188        C589   1.457       .  S
In190       O192   2.233       .  S
In190       O193   2.272   1_545  S
In190       O201   2.196       .  S
In190       O195   2.267       .  S
In190       O197   2.254       .  S
In190       O198   2.258   1_545  S
In190       O199   2.204       .  S
In190       O202   2.250       .  S
C191        C738   1.477       .  S
C191        O197   1.268       .  A
C191        O199   1.263       .  A
O192        C200   1.257       .  A
O193        C200   1.267   1_565  A
C194        C626   1.483       .  S
C194        O201   1.263       .  A
C194        O195   1.267       .  A
C196        O198   1.266   1_545  A
C196        O202   1.260       .  A
C200        C298   1.468   1_545  S
In203       O205   2.229       .  S
In203       O206   2.262       .  S
In203       O214   2.192       .  S
In203       O208   2.250       .  S
In203       O210   2.250       .  S
In203       O211   2.266       .  S
In203       O212   2.187       .  S
In203       O215   2.226       .  S
C204        C654   1.476       .  S
C204        O210   1.268       .  A
C204        O212   1.265       .  A
O205        C213   1.259       .  A
O206        C213   1.268       .  A
C207        C757   1.477       .  S
C207        O214   1.265       .  A
C207        O208   1.267       .  A
C209        O211   1.268       .  A
C209        O215   1.258       .  A
C213        C277   1.465       .  S
In216       O218   2.247       .  S
In216       O219   2.254       .  S
In216       O227   2.215       .  S
In216       O221   2.258       .  S
In216       O223   2.275       .  S
In216       O224   2.260       .  S
In216       O225   2.190       .  S
In216       O228   2.226       .  S
C217        C598   1.484       .  S
C217        O223   1.268       .  A
C217        O225   1.262       .  A
O218        C226   1.261       .  A
O219        C226   1.265       .  A
C220        C710   1.480       .  S
C220        O227   1.263       .  A
C220        O221   1.268       .  A
C222        C260   1.462       .  S
C222        O224   1.266       .  A
C222        O228   1.257       .  A
C229        N230   1.362       .  A
C229        N234   1.360       .  A
C229        C505   1.502       .  S
N230        C231   1.360       .  A
C231        N232   1.348       .  A
C231        C570   1.486       .  S
N232        C233   1.357       .  A
C233        N234   1.367       .  A
C233        C542   1.460       .  S
C235        N236   1.359       .  A
C235        N240   1.371       .  A
C235        C449   1.484       .  S
N236        C237   1.356       .  A
C237        N238   1.358       .  A
C237        C561   1.483       .  S
N238        C239   1.352       .  A
C239        N240   1.366       .  A
C239        C477   1.490       .  S
In241       O243   2.225       .  S
In241       O244   2.231       .  S
In241       O252   2.220       .  S
In241       O246   2.247       .  S
In241       O248   2.233       .  S
In241       O249   2.232       .  S
In241       O250   2.220       .  S
In241       O253   2.221       .  S
C242        C421   1.479       .  S
C242        O248   1.274       .  A
C242        O250   1.262       .  A
O243        C251   1.262       .  A
O244        C251   1.268       .  A
C245        C533   1.484       .  S
C245        O252   1.263       .  A
C245        O246   1.273       .  A
C247        O249   1.269       .  A
C247        O253   1.262       .  A
In254       O256   2.237       .  S
In254       O257   2.257       .  S
In254       O265   2.181       .  S
In254       O259   2.241       .  S
In254       O261   2.258       .  S
In254       O262   2.252       .  S
In254       O263   2.185       .  S
In254       O266   2.234       .  S
C255        C402   1.478       .  S
C255        O261   1.268       .  A
C255        O263   1.264       .  A
O256        C264   1.258       .  A
O257        C264   1.265       .  A
C258        C486   1.477       .  S
C258        O265   1.262       .  A
C258        O259   1.268       .  A
C260        O262   1.266       .  A
C260        O266   1.259       .  A
In267       O269   2.232   1_545  S
In267       O270   2.267       .  S
In267       O278   2.201   1_545  S
In267       O272   2.271   1_545  S
In267       O274   2.271       .  S
In267       O275   2.257       .  S
In267       O276   2.215       .  S
In267       O279   2.241       .  S
C268        C365   1.490       .  S
C268        O274   1.268       .  A
C268        O276   1.264       .  A
O269        C277   1.257   1_565  A
O270        C277   1.266       .  A
C271        C458   1.487       .  S
C271        O278   1.263       .  A
C271        O272   1.269       .  A
C273        O275   1.265       .  A
C273        O279   1.260       .  A
C280        N281   1.358       .  A
C280        N285   1.363       .  A
C280        C430   1.465       .  S
N281        C282   1.353       .  A
C282        N283   1.356       .  A
C282        C346   1.477       .  S
N283        C284   1.350       .  A
C284        N285   1.363       .  A
C284        C309   1.480       .  S
C286        N287   1.359       .  A
C286        N291   1.362       .  A
C286        C374   1.488       .  S
N287        C288   1.361       .  A
C288        N289   1.362       .  A
C288        C393   1.467       .  S
N289        C290   1.350       .  A
C290        N291   1.359       .  A
C290        C337   1.487       .  S
In292       O294   2.238       .  S
In292       O295   2.274       .  S
In292       O303   2.196       .  S
In292       O297   2.265       .  S
In292       O299   2.247   1_565  S
In292       O300   2.265   1_565  S
In292       O301   2.199   1_565  S
In292       O304   2.240       .  S
C293        C318   1.474       .  S
C293        O299   1.267       .  A
C293        O301   1.263       .  A
O294        C302   1.260       .  A
O295        C302   1.267       .  A
C296        C514   1.477       .  S
C296        O303   1.264       .  A
C296        O297   1.267       .  A
C298        O300   1.265   1_565  A
C298        O304   1.256       .  A
C305        C306   1.397       .  A
C305        C310   1.396       .  A
C305        H315   1.074       .  S
C306        C311   1.477       .  S
C306        C307   1.411       .  A
C307        C308   1.401       .  A
C307        N312   1.426       .  S
C308        C309   1.401       .  A
C308        H313   1.076       .  S
C309        C310   1.418       .  A
C310        N314   1.428       .  S
C311        C316   1.409       .  A
C311        C320   1.401       .  A
N312        O327   1.262       .  A
N312        O328   1.261       .  A
N314        O325   1.262       .  A
N314        O326   1.262       .  A
C316        C317   1.396       .  A
C316        N321   1.426       .  S
C317        C318   1.402       .  A
C317        H322   1.075       .  S
C318        C319   1.413       .  A
C319        C320   1.399       .  A
C319        N323   1.426       .  S
C320        H324   1.073       .  S
N321        O331   1.262       .  A
N321        O332   1.261       .  A
N323        O329   1.261       .  A
N323        O330   1.261       .  A
C333        C334   1.399       .  A
C333        C338   1.399       .  A
C333        H343   1.078       .  S
C334        C339   1.475   1_655  S
C334        C335   1.408       .  A
C335        C336   1.396       .  A
C335        N340   1.427       .  S
C336        C337   1.403       .  A
C336        H341   1.081       .  S
C337        C338   1.421       .  A
C338        N342   1.427       .  S
C339        C344   1.408       .  A
C339        C348   1.402       .  A
N340        O355   1.262       .  A
N340        O356   1.261       .  A
N342        O353   1.261       .  A
N342        O354   1.262       .  A
C344        C345   1.390       .  A
C344        N349   1.426       .  S
C345        C346   1.403       .  A
C345        H350   1.072       .  S
C346        C347   1.417       .  A
C347        C348   1.400       .  A
C347        N351   1.428       .  S
C348        H352   1.076       .  S
N349        O359   1.261       .  A
N349        O360   1.261       .  A
N351        O357   1.262       .  A
N351        O358   1.262       .  A
C361        C362   1.402       .  A
C361        C366   1.404       .  A
C361        H371   1.064       .  S
C362        C367   1.491       .  S
C362        C363   1.417       .  A
C363        C364   1.399       .  A
C363        N368   1.429       .  S
C364        C365   1.405       .  A
C364        H369   1.066       .  S
C365        C366   1.415       .  A
C366        N370   1.425       .  S
C367        C372   1.418       .  A
C367        C376   1.401       .  A
N368        O383   1.263       .  A
N368        O384   1.261       .  A
N370        O381   1.261       .  A
N370        O382   1.262       .  A
C372        C373   1.397       .  A
C372        N377   1.428       .  S
C373        C374   1.402       .  A
C373        H378   1.075       .  S
C374        C375   1.417       .  A
C375        C376   1.403       .  A
C375        N379   1.426       .  S
C376        H380   1.062       .  S
N377        O387   1.262       .  A
N377        O388   1.262       .  A
N379        O385   1.262       .  A
N379        O386   1.262       .  A
C389        C390   1.400       .  A
C389        C394   1.396       .  A
C389        H399   1.080       .  S
C390        C395   1.480       .  S
C390        C391   1.416       .  A
C391        C392   1.392       .  A
C391        N396   1.427       .  S
C392        C393   1.397       .  A
C392        H397   1.082       .  S
C393        C394   1.411       .  A
C394        N398   1.426       .  S
C395        C400   1.415       .  A
C395        C404   1.401       .  A
N396        O411   1.263       .  A
N396        O412   1.261       .  A
N398        O409   1.262       .  A
N398        O410   1.262       .  A
C400        C401   1.392       .  A
C400        N405   1.429       .  S
C401        C402   1.401       .  A
C401        H406   1.081       .  S
C402        C403   1.412       .  A
C403        C404   1.399       .  A
C403        N407   1.425       .  S
C404        H408   1.081       .  S
N405        O415   1.263       .  A
N405        O416   1.261       .  A
N407        O413   1.262       .  A
N407        O414   1.260       .  A
C417        C418   1.395       .  A
C417        C422   1.399       .  A
C417        H427   1.069       .  S
C418        C423   1.473       .  S
C418        C419   1.411       .  A
C419        C420   1.395       .  A
C419        N424   1.425       .  S
C420        C421   1.398       .  A
C420        H425   1.076       .  S
C421        C422   1.420       .  A
C422        N426   1.427       .  S
C423        C428   1.411       .  A
C423        C432   1.396       .  A
N424        O439   1.262       .  A
N424        O440   1.260       .  A
N426        O437   1.262       .  A
N426        O438   1.262       .  A
C428        C429   1.399       .  A
C428        N433   1.426       .  S
C429        C430   1.399       .  A
C429        H434   1.073       .  S
C430        C431   1.410       .  A
C431        C432   1.397       .  A
C431        N435   1.425       .  S
C432        H436   1.076       .  S
N433        O443   1.262       .  A
N433        O444   1.260       .  A
N435        O441   1.262       .  A
N435        O442   1.261       .  A
C445        C446   1.395       .  A
C445        C450   1.396       .  A
C445        H455   1.079       .  S
C446        C451   1.484       .  S
C446        C447   1.414       .  A
C447        C448   1.405       .  A
C447        N452   1.425       .  S
C448        C449   1.401       .  A
C448        H453   1.080       .  S
C449        C450   1.415       .  A
C450        N454   1.423       .  S
C451        C456   1.409       .  A
C451        C460   1.404       .  A
N452        O467   1.262       .  A
N452        O468   1.261       .  A
N454        O465   1.261       .  A
N454        O466   1.260       .  A
C456        C457   1.398       .  A
C456        N461   1.426       .  S
C457        C458   1.406       .  A
C457        H462   1.076       .  S
C458        C459   1.414       .  A
C459        C460   1.403       .  A
C459        N463   1.427       .  S
C460        H464   1.074       .  S
N461        O471   1.262       .  A
N461        O472   1.261       .  A
N463        O469   1.262       .  A
N463        O470   1.261       .  A
C473        C474   1.398       .  A
C473        C478   1.402       .  A
C473        H483   1.077       .  S
C474        C479   1.494       .  S
C474        C475   1.418       .  A
C475        C476   1.409       .  A
C475        N480   1.427       .  S
C476        C477   1.402       .  A
C476        H481   1.074       .  S
C477        C478   1.417       .  A
C478        N482   1.426       .  S
C479        C484   1.411       .  A
C479        C488   1.416       .  A
N480        O495   1.262       .  A
N480        O496   1.261       .  A
N482        O493   1.262       .  A
N482        O494   1.262       .  A
C484        C485   1.389       .  A
C484        N489   1.424       .  S
C485        C486   1.396       .  A
C485        H490   1.081       .  S
C486        C487   1.407       .  A
C487        C488   1.412       .  A
C487        N491   1.430       .  S
C488        H492   1.090       .  S
N489        O499   1.262       .  A
N489        O500   1.261       .  A
N491        O497   1.263       .  A
N491        O498   1.262       .  A
C501        C502   1.401       .  A
C501        C506   1.407       .  A
C501        H511   1.076       .  S
C502        C507   1.489       .  S
C502        C503   1.412       .  A
C503        C504   1.395       .  A
C503        N508   1.426       .  S
C504        C505   1.405       .  A
C504        H509   1.080       .  S
C505        C506   1.423       .  A
C506        N510   1.426       .  S
C507        C512   1.415       .  A
C507        C516   1.404       .  A
N508        O523   1.263       .  A
N508        O524   1.260       .  A
N510        O521   1.262       .  A
N510        O522   1.262       .  A
C512        C513   1.394       .  A
C512        N517   1.427       .  S
C513        C514   1.400       .  A
C513        H518   1.075       .  S
C514        C515   1.413       .  A
C515        C516   1.403       .  A
C515        N519   1.426       .  S
C516        H520   1.069       .  S
N517        O527   1.262       .  A
N517        O528   1.262       .  A
N519        O525   1.262       .  A
N519        O526   1.262       .  A
C529        C530   1.396       .  A
C529        C534   1.396       .  A
C529        H539   1.072       .  S
C530        C535   1.489       .  S
C530        C531   1.423       .  A
C531        C532   1.400       .  A
C531        N536   1.429       .  S
C532        C533   1.399       .  A
C532        H537   1.074       .  S
C533        C534   1.417       .  A
C534        N538   1.425       .  S
C535        C540   1.426       .  A
C535        C544   1.398       .  A
N536        O551   1.263       .  A
N536        O552   1.262       .  A
N538        O549   1.262       .  A
N538        O550   1.261       .  A
C540        C541   1.399       .  A
C540        N545   1.427       .  S
C541        C542   1.393       .  A
C541        H546   1.076       .  S
C542        C543   1.408       .  A
C543        C544   1.392       .  A
C543        N547   1.426       .  S
C544        H548   1.075       .  S
N545        O555   1.263       .  A
N545        O556   1.261       .  A
N547        O553   1.262       .  A
N547        O554   1.261       .  A
C557        C558   1.393       .  A
C557        C562   1.390       .  A
C557        H567   1.077       .  S
C558        C563   1.480   1_655  S
C558        C559   1.415       .  A
C559        C560   1.394       .  A
C559        N564   1.427       .  S
C560        C561   1.404       .  A
C560        H565   1.077       .  S
C561        C562   1.415       .  A
C562        N566   1.420       .  S
C563        C568   1.415       .  A
C563        C572   1.398       .  A
N564        O579   1.262       .  A
N564        O580   1.262       .  A
N566        O577   1.263       .  A
N566        O578   1.261       .  A
C568        C569   1.390       .  A
C568        N573   1.429       .  S
C569        C570   1.400       .  A
C569        H574   1.073       .  S
C570        C571   1.422       .  A
C571        C572   1.401       .  A
C571        N575   1.427       .  S
C572        H576   1.072       .  S
N573        O583   1.262       .  A
N573        O584   1.262       .  A
N575        O581   1.262       .  A
N575        O582   1.262       .  A
C585        C586   1.400       .  A
C585        C590   1.394       .  A
C585        H595   1.076       .  S
C586        C591   1.474       .  S
C586        C587   1.411       .  A
C587        C588   1.394       .  A
C587        N592   1.423       .  S
C588        C589   1.395       .  A
C588        H593   1.076       .  S
C589        C590   1.408       .  A
C590        N594   1.427       .  S
C591        C596   1.405       .  A
C591        C600   1.400       .  A
N592        O607   1.261       .  A
N592        O608   1.261       .  A
N594        O605   1.261       .  A
N594        O606   1.261       .  A
C596        C597   1.394       .  A
C596        N601   1.426       .  S
C597        C598   1.406       .  A
C597        H602   1.076       .  S
C598        C599   1.415       .  A
C599        C600   1.400       .  A
C599        N603   1.426       .  S
C600        H604   1.070       .  S
N601        O611   1.262       .  A
N601        O612   1.261       .  A
N603        O609   1.262       .  A
N603        O610   1.261       .  A
C613        C614   1.400       .  A
C613        C618   1.395       .  A
C613        H623   1.081       .  S
C614        C619   1.480       .  S
C614        C615   1.419       .  A
C615        C616   1.393       .  A
C615        N620   1.428       .  S
C616        C617   1.394       .  A
C616        H621   1.083       .  S
C617        C618   1.406       .  A
C618        N622   1.425       .  S
C619        C624   1.413       .  A
C619        C628   1.400       .  A
N620        O635   1.263       .  A
N620        O636   1.261       .  A
N622        O633   1.262       .  A
N622        O634   1.261       .  A
C624        C625   1.394       .  A
C624        N629   1.428       .  S
C625        C626   1.404       .  A
C625        H630   1.071       .  S
C626        C627   1.414       .  A
C627        C628   1.400       .  A
C627        N631   1.424       .  S
C628        H632   1.071       .  S
N629        O639   1.263       .  A
N629        O640   1.261       .  A
N631        O637   1.262       .  A
N631        O638   1.261       .  A
C641        C642   1.400       .  A
C641        C646   1.402       .  A
C641        H651   1.074       .  S
C642        C647   1.476       .  S
C642        C643   1.410       .  A
C643        C644   1.390       .  A
C643        N648   1.428       .  S
C644        C645   1.403       .  A
C644        H649   1.075       .  S
C645        C646   1.416       .  A
C646        N650   1.426       .  S
C647        C652   1.410       .  A
C647        C656   1.400       .  A
N648        O663   1.262       .  A
N648        O664   1.261       .  A
N650        O661   1.262       .  A
N650        O662   1.262       .  A
C652        C653   1.390       .  A
C652        N657   1.427       .  S
C653        C654   1.401       .  A
C653        H658   1.079       .  S
C654        C655   1.415       .  A
C655        C656   1.400       .  A
C655        N659   1.426       .  S
C656        H660   1.075       .  S
N657        O667   1.262       .  A
N657        O668   1.262       .  A
N659        O665   1.262       .  A
N659        O666   1.262       .  A
C669        C670   1.395       .  A
C669        C674   1.397       .  A
C669        H679   1.080       .  S
C670        C675   1.477       .  S
C670        C671   1.412   1_655  A
C671        C672   1.392       .  A
C671        N676   1.427       .  S
C672        C673   1.403   1_455  A
C672        H677   1.077       .  S
C673        C674   1.420       .  A
C674        N678   1.425       .  S
C675        C680   1.413       .  A
C675        C684   1.399   1_655  A
N676        O691   1.262       .  A
N676        O692   1.260       .  A
N678        O689   1.262       .  A
N678        O690   1.262       .  A
C680        C681   1.390       .  A
C680        N685   1.427       .  S
C681        C682   1.401       .  A
C681        H686   1.076       .  S
C682        C683   1.417   1_655  A
C683        C684   1.399       .  A
C683        N687   1.426       .  S
C684        H688   1.073       .  S
N685        O695   1.262       .  A
N685        O696   1.261       .  A
N687        O693   1.262       .  A
N687        O694   1.262       .  A
C697        C698   1.401       .  A
C697        C702   1.400       .  A
C697        H707   1.072       .  S
C698        C703   1.486       .  S
C698        C699   1.418       .  A
C699        C700   1.393       .  A
C699        N704   1.428       .  S
C700        C701   1.398       .  A
C700        H705   1.078       .  S
C701        C702   1.413       .  A
C702        N706   1.427       .  S
C703        C708   1.417       .  A
C703        C712   1.400       .  A
N704        O719   1.263       .  A
N704        O720   1.261       .  A
N706        O717   1.262       .  A
N706        O718   1.261       .  A
C708        C709   1.400       .  A
C708        N713   1.428       .  S
C709        C710   1.403       .  A
C709        H714   1.072       .  S
C710        C711   1.412       .  A
C711        C712   1.398       .  A
C711        N715   1.425       .  S
C712        H716   1.070       .  S
N713        O723   1.263       .  A
N713        O724   1.261       .  A
N715        O721   1.262       .  A
N715        O722   1.261       .  A
C725        C726   1.404       .  A
C725        C730   1.403       .  A
C725        H735   1.061       .  S
C726        C731   1.485       .  S
C726        C727   1.417       .  A
C727        C728   1.391       .  A
C727        N732   1.430       .  S
C728        C729   1.401       .  A
C728        H733   1.063       .  S
C729        C730   1.412       .  A
C730        N734   1.426       .  S
C731        C736   1.417       .  A
C731        C740   1.400       .  A
N732        O747   1.262       .  A
N732        O748   1.261       .  A
N734        O745   1.262       .  A
N734        O746   1.262       .  A
C736        C737   1.396       .  A
C736        N741   1.429       .  S
C737        C738   1.402       .  A
C737        H742   1.072       .  S
C738        C739   1.411       .  A
C739        C740   1.398       .  A
C739        N743   1.425       .  S
C740        H744   1.071       .  S
N741        O751   1.262       .  A
N741        O752   1.261       .  A
N743        O749   1.262       .  A
N743        O750   1.262       .  A
C753        C754   1.399       .  A
C753        C758   1.402       .  A
C753        H763   1.074       .  S
C754        C759   1.474       .  S
C754        C755   1.405       .  A
C755        C756   1.393       .  A
C755        N760   1.425       .  S
C756        C757   1.403       .  A
C756        H761   1.071       .  S
C757        C758   1.415       .  A
C758        N762   1.427       .  S
C759        C764   1.407       .  A
C759        C768   1.402       .  A
N760        O775   1.262       .  A
N760        O776   1.261       .  A
N762        O773   1.262       .  A
N762        O774   1.262       .  A
C764        C765   1.394       .  A
C764        N769   1.426       .  S
C765        C766   1.401       .  A
C765        H770   1.068       .  S
C766        C767   1.414       .  A
C767        C768   1.405       .  A
C767        N771   1.427       .  S
C768        H772   1.065       .  S
N769        O779   1.262       .  A
N769        O780   1.261       .  A
N771        O777   1.262       .  A
N771        O778   1.262       .  A
C781        C782   1.398       .  A
C781        C786   1.400       .  A
C781        H791   1.075       .  S
C782        C787   1.485       .  S
C782        C783   1.419       .  A
C783        C784   1.393       .  A
C783        N788   1.428       .  S
C784        C785   1.398       .  A
C784        H789   1.071       .  S
C785        C786   1.418       .  A
C786        N790   1.426       .  S
C787        C792   1.418       .  A
C787        C796   1.397       .  A
N788        O803   1.262       .  A
N788        O804   1.260       .  A
N790        O801   1.262       .  A
N790        O802   1.262       .  A
C792        C793   1.397       .  A
C792        N797   1.429       .  S
C793        C794   1.403       .  A
C793        H798   1.078       .  S
C794        C795   1.417       .  A
C795        C796   1.398       .  A
C795        N799   1.425       .  S
C796        H800   1.077       .  S
N797        O807   1.262       .  A
N797        O808   1.260       .  A
N799        O805   1.262       .  A
N799        O806   1.262       .  A
C809        C810   1.399       .  A
C809        C814   1.400       .  A
C809        H819   1.077       .  S
C810        C815   1.484       .  S
C810        C811   1.413       .  A
C811        C812   1.401       .  A
C811        N816   1.426       .  S
C812        C813   1.400       .  A
C812        H817   1.077       .  S
C813        C814   1.417       .  A
C814        N818   1.428       .  S
C815        C820   1.408       .  A
C815        C824   1.403       .  A
N816        O831   1.262       .  A
N816        O832   1.261       .  A
N818        O829   1.262       .  A
N818        O830   1.262       .  A
C820        C821   1.395       .  A
C820        N825   1.423       .  S
C821        C822   1.403       .  A
C821        H826   1.073       .  S
C822        C823   1.419       .  A
C823        C824   1.405       .  A
C823        N827   1.427       .  S
C824        H828   1.073       .  S
N825        O835   1.260       .  A
N825        O836   1.260       .  A
N827        O833   1.262       .  A
N827        O834   1.262       .  A
C837        C838   1.400       .  A
C837        C842   1.399       .  A
C837        H847   1.074       .  S
C838        C843   1.474       .  S
C838        C839   1.407       .  A
C839        C840   1.395       .  A
C839        N844   1.427       .  S
C840        C841   1.407       .  A
C840        H845   1.075       .  S
C841        C842   1.414       .  A
C842        N846   1.425       .  S
C843        C848   1.409       .  A
C843        C852   1.399       .  A
N844        O859   1.262       .  A
N844        O860   1.261       .  A
N846        O857   1.262       .  A
N846        O858   1.262       .  A
C848        C849   1.391       .  A
C848        N853   1.426       .  S
C849        C850   1.400       .  A
C849        H854   1.074       .  S
C850        C851   1.418       .  A
C851        C852   1.403       .  A
C851        N855   1.426       .  S
C852        H856   1.076       .  S
N853        O863   1.262       .  A
N853        O864   1.262       .  A
N855        O861   1.262       .  A
N855        O862   1.262       .  A
C865        C866   1.399       .  A
C865        C870   1.401       .  A
C865        H875   1.075       .  S
C866        C871   1.484       .  S
C866        C867   1.412   1_556  A
C867        C868   1.400       .  A
C867        N872   1.423       .  S
C868        C869   1.400   1_554  A
C868        H873   1.074       .  S
C869        C870   1.415       .  A
C870        N874   1.426       .  S
C871        C876   1.407       .  A
C871        C880   1.405   1_556  A
N872        O887   1.262       .  A
N872        O888   1.261       .  A
N874        O885   1.262       .  A
N874        O886   1.262       .  A
C876        C877   1.396   1_556  A
C876        N881   1.426       .  S
C877        C878   1.406       .  A
C877        H882   1.065       .  S
C878        C879   1.418       .  A
C879        C880   1.407       .  A
C879        N883   1.428       .  S
C880        H884   1.061       .  S
N881        O891   1.262       .  A
N881        O892   1.261   1_556  A
N883        O889   1.262   1_554  A
N883        O890   1.262       .  A
C893        C894   1.406       .  A
C893        C898   1.402       .  A
C893        H903   1.080       .  S
C894        C899   1.479       .  S
C894        C895   1.408       .  A
C895        C896   1.392       .  A
C895        N900   1.426       .  S
C896        C897   1.404       .  A
C896        H901   1.074       .  S
C897        C898   1.416       .  A
C898        N902   1.428       .  S
C899        C904   1.412       .  A
C899        C908   1.398       .  A
N900        O915   1.262   1_554  A
N900        O916   1.261       .  A
N902        O913   1.262       .  A
N902        O914   1.262       .  A
C904        C905   1.403       .  A
C904        N909   1.426       .  S
C905        C906   1.404       .  A
C905        H910   1.073       .  S
C906        C907   1.415       .  A
C907        C908   1.392       .  A
C907        N911   1.427   1_554  S
C908        H912   1.079       .  S
N909        O919   1.260       .  A
N909        O920   1.260       .  A
N911        O917   1.262       .  A
N911        O918   1.262   1_556  A
C921        C922   1.407       .  A
C921        C926   1.407       .  A
C921        H931   1.076       .  S
C922        C927   1.492       .  S
C922        C923   1.410       .  A
C923        C924   1.396       .  A
C923        N928   1.426       .  S
C924        C925   1.405       .  A
C924        H929   1.073       .  S
C925        C926   1.416       .  A
C926        N930   1.427   1_556  S
C927        C932   1.414       .  A
C927        C936   1.405       .  A
N928        O943   1.262       .  A
N928        O944   1.261       .  A
N930        O941   1.262       .  A
N930        O942   1.262   1_554  A
C932        C933   1.403       .  A
C932        N937   1.426   1_556  S
C933        C934   1.402       .  A
C933        H938   1.065       .  S
C934        C935   1.415       .  A
C935        C936   1.405       .  A
C935        N939   1.428       .  S
C936        H940   1.047       .  S
N937        O947   1.261       .  A
N937        O948   1.261       .  A
N939        O945   1.262       .  A
N939        O946   1.262       .  A
C949        C950   1.401   1_554  A
C949        C954   1.395       .  A
C949        H959   1.076       .  S
C950        C955   1.487       .  S
C950        C951   1.416       .  A
C951        C952   1.403       .  A
C951        N956   1.427       .  S
C952        C953   1.400   1_556  A
C952        H957   1.079       .  S
C953        C954   1.414       .  A
C954        N958   1.428       .  S
C955        C960   1.408       .  A
C955        C964   1.407       .  A
N956        O971   1.262       .  A
N956        O972   1.261       .  A
N958        O969   1.262       .  A
N958        O970   1.262       .  A
C960        C961   1.396       .  A
C960        N965   1.427       .  S
C961        C962   1.407       .  A
C961        H966   1.070       .  S
C962        C963   1.414       .  A
C963        C964   1.404       .  A
C963        N967   1.427       .  S
C964        H968   1.070   1_556  S
N965        O975   1.262       .  A
N965        O976   1.261       .  A
N967        O973   1.262   1_556  A
N967        O974   1.262       .  A
C977        C978   1.407   1_556  A
C977        C982   1.405       .  A
C977        H987   1.081       .  S
C978        C983   1.487       .  S
C978        C979   1.410       .  A
C979        C980   1.393       .  A
C979        N984   1.425       .  S
C980        C981   1.401       .  A
C980        H985   1.079       .  S
C981        C982   1.412   1_554  A
C982        N986   1.427       .  S
C983        C988   1.413   1_554  A
C983        C992   1.399       .  A
N984        O999   1.261       .  A
N984       O1000   1.261       .  A
N986        O997   1.262       .  A
N986        O998   1.262       .  A
C988        C989   1.402       .  A
C988        N993   1.426       .  S
C989        C990   1.402       .  A
C989        H994   1.079       .  S
C990        C991   1.420   1_556  A
C991        C992   1.401       .  A
C991        N995   1.427       .  S
C992        H996   1.073       .  S
N993       O1003   1.262       .  A
N993       O1004   1.261   1_556  A
N995       O1001   1.262   1_554  A
N995       O1002   1.262       .  A
C1005      C1006   1.397       .  A
C1005      C1010   1.402       .  A
C1005      H1015   1.074       .  S
C1006      C1011   1.487       .  S
C1006      C1007   1.414       .  A
C1007      C1008   1.405       .  A
C1007      N1012   1.426       .  S
C1008      C1009   1.403       .  A
C1008      H1013   1.074       .  S
C1009      C1010   1.421       .  A
C1010      N1014   1.427       .  S
C1011      C1016   1.414       .  A
C1011      C1020   1.399       .  A
N1012      O1027   1.262       .  A
N1012      O1028   1.261   1_556  A
N1014      O1025   1.262       .  A
N1014      O1026   1.262       .  A
C1016      C1017   1.401       .  A
C1016      N1021   1.426       .  S
C1017      C1018   1.400       .  A
C1017      H1022   1.073       .  S
C1018      C1019   1.419       .  A
C1019      C1020   1.405       .  A
C1019      N1023   1.427       .  S
C1020      H1024   1.070       .  S
N1021      O1031   1.262       .  A
N1021      O1032   1.261   1_556  A
N1023      O1029   1.262       .  A
N1023      O1030   1.262       .  A
C1033      C1034   1.406       .  A
C1033      C1038   1.407       .  A
C1033      H1043   1.064       .  S
C1034      C1039   1.491       .  S
C1034      C1035   1.409       .  A
C1035      C1036   1.402       .  A
C1035      N1040   1.426       .  S
C1036      C1037   1.409       .  A
C1036      H1041   1.065       .  S
C1037      C1038   1.416       .  A
C1038      N1042   1.426       .  S
C1039      C1044   1.416       .  A
C1039      C1048   1.401       .  A
N1040      O1055   1.262       .  A
N1040      O1056   1.261       .  A
N1042      O1053   1.262   1_556  A
N1042      O1054   1.262       .  A
C1044      C1045   1.408       .  A
C1044      N1049   1.426   1_556  S
C1045      C1046   1.402       .  A
C1045      H1050   1.070       .  S
C1046      C1047   1.412       .  A
C1047      C1048   1.399       .  A
C1047      N1051   1.426       .  S
C1048      H1052   1.068       .  S
N1049      O1059   1.262       .  A
N1049      O1060   1.261       .  A
N1051      O1057   1.261       .  A
N1051      O1058   1.261       .  A
C1061      C1062   1.395       .  A
C1061      C1066   1.398       .  A
C1061      H1071   1.083       .  S
C1062      C1067   1.489       .  S
C1062      C1063   1.420       .  A
C1063      C1064   1.404       .  A
C1063      N1068   1.427   1_556  S
C1064      C1065   1.400       .  A
C1064      H1069   1.081       .  S
C1065      C1066   1.420       .  A
C1066      N1070   1.425       .  S
C1067      C1072   1.420       .  A
C1067      C1076   1.395       .  A
N1068      O1083   1.262       .  A
N1068      O1084   1.262       .  A
N1070      O1081   1.261       .  A
N1070      O1082   1.263       .  A
C1072      C1073   1.400       .  A
C1072      N1077   1.427       .  S
C1073      C1074   1.399       .  A
C1073      H1078   1.082       .  S
C1074      C1075   1.420       .  A
C1075      C1076   1.400       .  A
C1075      N1079   1.426       .  S
C1076      H1080   1.081       .  S
N1077      O1087   1.262       .  A
N1077      O1088   1.262   1_556  A
N1079      O1085   1.262       .  A
N1079      O1086   1.262       .  A
C1089      C1090   1.395       .  A
C1089      C1094   1.396       .  A
C1089      H1099   1.075       .  S
C1090      C1095   1.483       .  S
C1090      C1091   1.418       .  A
C1091      C1092   1.402       .  A
C1091      N1096   1.428       .  S
C1092      C1093   1.402       .  A
C1092      H1097   1.074       .  S
C1093      C1094   1.417       .  A
C1094      N1098   1.426       .  S
C1095      C1100   1.418       .  A
C1095      C1104   1.397       .  A
N1096      O1111   1.262       .  A
N1096      O1112   1.262       .  A
N1098      O1109   1.261       .  A
N1098      O1110   1.262   1_556  A
C1100      C1101   1.402       .  A
C1100      N1105   1.427       .  S
C1101      C1102   1.399       .  A
C1101      H1106   1.067       .  S
C1102      C1103   1.417       .  A
C1103      C1104   1.398       .  A
C1103      N1107   1.427   1_556  S
C1104      H1108   1.071       .  S
N1105      O1115   1.262       .  A
N1105      O1116   1.262       .  A
N1107      O1113   1.262       .  A
N1107      O1114   1.261   1_554  A
C1117      C1118   1.398       .  A
C1117      C1122   1.395       .  A
C1117      H1127   1.069       .  S
C1118      C1123   1.479       .  S
C1118      C1119   1.417       .  A
C1119      C1120   1.393       .  A
C1119      N1124   1.429       .  S
C1120      C1121   1.400       .  A
C1120      H1125   1.071       .  S
C1121      C1122   1.413       .  A
C1122      N1126   1.424       .  S
C1123      C1128   1.417       .  A
C1123      C1132   1.398       .  A
N1124      O1139   1.262       .  A
N1124      O1140   1.262       .  A
N1126      O1137   1.262       .  A
N1126      O1138   1.261       .  A
C1128      C1129   1.390       .  A
C1128      N1133   1.428       .  S
C1129      C1130   1.398       .  A
C1129      H1134   1.077       .  S
C1130      C1131   1.415       .  A
C1131      C1132   1.394       .  A
C1131      N1135   1.427       .  S
C1132      H1136   1.074       .  S
N1133      O1143   1.263       .  A
N1133      O1144   1.262       .  A
N1135      O1141   1.261       .  A
N1135      O1142   1.262       .  A
C1145      C1146   1.397       .  A
C1145      C1150   1.400       .  A
C1145      H1155   1.086       .  S
C1146      C1151   1.480       .  S
C1146      C1147   1.411       .  A
C1147      C1148   1.392       .  A
C1147      N1152   1.428       .  S
C1148      C1149   1.404       .  A
C1148      H1153   1.085       .  S
C1149      C1150   1.420       .  A
C1150      N1154   1.425       .  S
C1151      C1156   1.413       .  A
C1151      C1160   1.401       .  A
N1152      O1167   1.262       .  A
N1152      O1168   1.262       .  A
N1154      O1165   1.262       .  A
N1154      O1166   1.262       .  A
C1156      C1157   1.389       .  A
C1156      N1161   1.427       .  S
C1157      C1158   1.399       .  A
C1157      H1162   1.084       .  S
C1158      C1159   1.413       .  A
C1159      C1160   1.400       .  A
C1159      N1163   1.426       .  S
C1160      H1164   1.080       .  S
N1161      O1171   1.262       .  A
N1161      O1172   1.262       .  A
N1163      O1169   1.262       .  A
N1163      O1170   1.262       .  A
C1173      C1174   1.402       .  A
C1173      C1178   1.400       .  A
C1173      H1183   1.074       .  S
C1174      C1179   1.479       .  S
C1174      C1175   1.413       .  A
C1175      C1176   1.390       .  A
C1175      N1180   1.427       .  S
C1176      C1177   1.398       .  A
C1176      H1181   1.082       .  S
C1177      C1178   1.411       .  A
C1178      N1182   1.426       .  S
C1179      C1184   1.410       .  A
C1179      C1188   1.401       .  A
N1180      O1195   1.262       .  A
N1180      O1196   1.262       .  A
N1182      O1193   1.262       .  A
N1182      O1194   1.262       .  A
C1184      C1185   1.393       .  A
C1184      N1189   1.427       .  S
C1185      C1186   1.404       .  A
C1185      H1190   1.072       .  S
C1186      C1187   1.414       .  A
C1187      C1188   1.401       .  A
C1187      N1191   1.426       .  S
C1188      H1192   1.072       .  S
N1189      O1199   1.262       .  A
N1189      O1200   1.262       .  A
N1191      O1197   1.262       .  A
N1191      O1198   1.262       .  A
C1201      C1202   1.397       .  A
C1201      C1206   1.394       .  A
C1201      H1211   1.075       .  S
C1202      C1207   1.480       .  S
C1202      C1203   1.417       .  A
C1203      C1204   1.400       .  A
C1203      N1208   1.426       .  S
C1204      C1205   1.397       .  A
C1204      H1209   1.070       .  S
C1205      C1206   1.411       .  A
C1206      N1210   1.426       .  S
C1207      C1212   1.415       .  A
C1207      C1216   1.395       .  A
N1208      O1223   1.262       .  A
N1208      O1224   1.262       .  A
N1210      O1221   1.261       .  A
N1210      O1222   1.262       .  A
C1212      C1213   1.399       .  A
C1212      N1217   1.427       .  S
C1213      C1214   1.399       .  A
C1213      H1218   1.080       .  S
C1214      C1215   1.419       .  A
C1215      C1216   1.400       .  A
C1215      N1219   1.426       .  S
C1216      H1220   1.078       .  S
N1217      O1227   1.262       .  A
N1217      O1228   1.262       .  A
N1219      O1225   1.262       .  A
N1219      O1226   1.262       .  A
C1229      C1230   1.399       .  A
C1229      C1234   1.405       .  A
C1229      H1239   1.076       .  S
C1230      C1235   1.485       .  S
C1230      C1231   1.411       .  A
C1231      C1232   1.394       .  A
C1231      N1236   1.428       .  S
C1232      C1233   1.408       .  A
C1232      H1237   1.074       .  S
C1233      C1234   1.421       .  A
C1234      N1238   1.425       .  S
C1235      C1240   1.414       .  A
C1235      C1244   1.401       .  A
N1236      O1251   1.262       .  A
N1236      O1252   1.262       .  A
N1238      O1249   1.262       .  A
N1238      O1250   1.262       .  A
C1240      C1241   1.397       .  A
C1240      N1245   1.428       .  S
C1241      C1242   1.402       .  A
C1241      H1246   1.080       .  S
C1242      C1243   1.414       .  A
C1243      C1244   1.403       .  A
C1243      N1247   1.424       .  S
C1244      H1248   1.070       .  S
N1245      O1255   1.262       .  A
N1245      O1256   1.262       .  A
N1247      O1253   1.261       .  A
N1247      O1254   1.261       .  A
C1257      C1258   1.398       .  A
C1257      C1262   1.398       .  A
C1257      H1267   1.067       .  S
C1258      C1263   1.476       .  S
C1258      C1259   1.412       .  A
C1259      C1260   1.394       .  A
C1259      N1264   1.428       .  S
C1260      C1261   1.402       .  A
C1260      H1265   1.066       .  S
C1261      C1262   1.416       .  A
C1262      N1266   1.426       .  S
C1263      C1268   1.412       .  A
C1263      C1272   1.396       .  A
N1264      O1279   1.262       .  A
N1264      O1280   1.261       .  A
N1266      O1277   1.262       .  A
N1266      O1278   1.262       .  A
C1268      C1269   1.394       .  A
C1268      N1273   1.428       .  S
C1269      C1270   1.402       .  A
C1269      H1274   1.076       .  S
C1270      C1271   1.420       .  A
C1271      C1272   1.399       .  A
C1271      N1275   1.426       .  S
C1272      H1276   1.075       .  S
N1273      O1283   1.262       .  A
N1273      O1284   1.261       .  A
N1275      O1281   1.262       .  A
N1275      O1282   1.262       .  A
C1285      C1286   1.400       .  A
C1285      C1290   1.403       .  A
C1285      H1295   1.075       .  S
C1286      C1291   1.478       .  S
C1286      C1287   1.414       .  A
C1287      C1288   1.388       .  A
C1287      N1292   1.429       .  S
C1288      C1289   1.399       .  A
C1288      H1293   1.079       .  S
C1289      C1290   1.417       .  A
C1290      N1294   1.426       .  S
C1291      C1296   1.413       .  A
C1291      C1300   1.398       .  A
N1292      O1307   1.263       .  A
N1292      O1308   1.261       .  A
N1294      O1305   1.262       .  A
N1294      O1306   1.262       .  A
C1296      C1297   1.395       .  A
C1296      N1301   1.428       .  S
C1297      C1298   1.404       .  A
C1297      H1302   1.071       .  S
C1298      C1299   1.412       .  A
C1299      C1300   1.395       .  A
C1299      N1303   1.424       .  S
C1300      H1304   1.073       .  S
N1301      O1311   1.263       .  A
N1301      O1312   1.261       .  A
N1303      O1309   1.262       .  A
N1303      O1310   1.262       .  A
C1313      C1314   1.400       .  A
C1313      C1318   1.399       .  A
C1313      H1323   1.075       .  S
C1314      C1319   1.483       .  S
C1314      C1315   1.416       .  A
C1315      C1316   1.394       .  A
C1315      N1320   1.429       .  S
C1316      C1317   1.402       .  A
C1316      H1321   1.075       .  S
C1317      C1318   1.414       .  A
C1318      N1322   1.425       .  S
C1319      C1324   1.420       .  A
C1319      C1328   1.400       .  A
N1320      O1335   1.263       .  A
N1320      O1336   1.261       .  A
N1322      O1333   1.262       .  A
N1322      O1334   1.262       .  A
C1324      C1325   1.391       .  A
C1324      N1329   1.428       .  S
C1325      C1326   1.396       .  A
C1325      H1330   1.087       .  S
C1326      C1327   1.409       .  A
C1327      C1328   1.395       .  A
C1327      N1331   1.426       .  S
C1328      H1332   1.084       .  S
N1329      O1339   1.263       .  A
N1329      O1340   1.262       .  A
N1331      O1337   1.262       .  A
N1331      O1338   1.262       .  A
C1341      C1342   1.394       .  A
C1341      C1346   1.398       .  A
C1341      H1351   1.072       .  S
C1342      C1347   1.487       .  S
C1342      C1343   1.419       .  A
C1343      C1344   1.405       .  A
C1343      N1348   1.427       .  S
C1344      C1345   1.398       .  A
C1344      H1349   1.078       .  S
C1345      C1346   1.415       .  A
C1346      N1350   1.426       .  S
C1347      C1352   1.419       .  A
C1347      C1356   1.395       .  A
N1348      O1363   1.262       .  A
N1348      O1364   1.262       .  A
N1350      O1361   1.262       .  A
N1350      O1362   1.262       .  A
C1352      C1353   1.402       .  A
C1352      N1357   1.427       .  S
C1353      C1354   1.401       .  A
C1353      H1358   1.077       .  S
C1354      C1355   1.420       .  A
C1355      C1356   1.399       .  A
C1355      N1359   1.426       .  S
C1356      H1360   1.075       .  S
N1357      O1367   1.263       .  A
N1357      O1368   1.261       .  A
N1359      O1365   1.262       .  A
N1359      O1366   1.261       .  A
C1369      C1370   1.395       .  A
C1369      C1374   1.401       .  A
C1369      H1379   1.075       .  S
C1370      C1375   1.491       .  S
C1370      C1371   1.417       .  A
C1371      C1372   1.407       .  A
C1371      N1376   1.427       .  S
C1372      C1373   1.405       .  A
C1372      H1377   1.073       .  S
C1373      C1374   1.426       .  A
C1374      N1378   1.427       .  S
C1375      C1380   1.419       .  A
C1375      C1384   1.399       .  A
N1376      O1391   1.262       .  A
N1376      O1392   1.262       .  A
N1378      O1389   1.262       .  A
N1378      O1390   1.262       .  A
C1380      C1381   1.402       .  A
C1380      N1385   1.427       .  S
C1381      C1382   1.400       .  A
C1381      H1386   1.077       .  S
C1382      C1383   1.416       .  A
C1383      C1384   1.402       .  A
C1383      N1387   1.426       .  S
C1384      H1388   1.072       .  S
N1385      O1395   1.262       .  A
N1385      O1396   1.262       .  A
N1387      O1393   1.262       .  A
N1387      O1394   1.261   1_565  A
C1397      C1398   1.395   1_655  A
C1397      C1402   1.394       .  A
C1397      H1407   1.078       .  S
C1398      C1403   1.475       .  S
C1398      C1399   1.414       .  A
C1399      C1400   1.395       .  A
C1399      N1404   1.429       .  S
C1400      C1401   1.403       .  A
C1400      H1405   1.079       .  S
C1401      C1402   1.417   1_455  A
C1402      N1406   1.425       .  S
C1403      C1408   1.416   1_455  A
C1403      C1412   1.397       .  A
N1404      O1419   1.263       .  A
N1404      O1420   1.262       .  A
N1406      O1417   1.262       .  A
N1406      O1418   1.262       .  A
C1408      C1409   1.388       .  A
C1408      N1413   1.428       .  S
C1409      C1410   1.396   1_655  A
C1409      H1414   1.077       .  S
C1410      C1411   1.416       .  A
C1411      C1412   1.396       .  A
C1411      N1415   1.427       .  S
C1412      H1416   1.079       .  S
N1413      O1423   1.262       .  A
N1413      O1424   1.261       .  A
N1415      O1421   1.262       .  A
N1415      O1422   1.262       .  A
