geometry optimzed in LAMMPS
_audit_creation_date              2020-11-30 
_audit_creation_method            'lammps2cif' 
_symmetry_space_group_name_H-M    'P1' 
_symmetry_Int_Tables_number       1 
_symmetry_cell_setting            triclinic 
loop_ 
_symmetry_equiv_pos_as_xyz 
  x,y,z 
_cell_length_a                    44.33296796276818 
_cell_length_b                    34.65182486024111 
_cell_length_c                    39.99321630958389 
_cell_angle_alpha                 89.31621912099243 
_cell_angle_beta                  89.76223854020853 
_cell_angle_gamma                 89.67384151466054 
loop_ 
_atom_site_label 
_atom_site_type_symbol 
_atom_site_fract_x 
_atom_site_fract_y 
_atom_site_fract_z 
_atom_site_charge 
N1          N  0.82115212  0.77637828  0.12372481    -0.27050
N2          N  0.82253617  0.73870669  0.12957046    -0.34900
C3          C  0.79884917  0.72838217  0.14881622     0.01290
C4          C  0.78192838  0.76108953  0.15547455     0.07320
C5          C  0.79672743  0.79092190  0.13922976    -0.05780
H6          H  0.79438661  0.69925940  0.15739490     0.07990
H7          H  0.79021187  0.82103406  0.13857095     0.09190
Cu8        Cu  0.85623087  0.70232685  0.11138411     0.44170
Cu9        Cu  0.85179027  0.80770648  0.09501525     0.41990
Cu10       Cu  0.90823932  0.75008605  0.05616283     0.43880
N11         N  0.89143658  0.67380558  0.08728295    -0.34430
N12         N  0.90961654  0.69176369  0.06605816    -0.28690
C13         C  0.92997435  0.66664573  0.05416603    -0.04790
C14         C  0.92448298  0.63092104  0.06847972     0.07430
C15         C  0.90008726  0.63651356  0.08974337     0.01230
H16         H  0.94828751  0.67428481  0.03741634     0.08880
H17         H  0.88964689  0.61523138  0.10596931     0.07960
N18         N  0.90708650  0.80926350  0.05215753    -0.35880
N19         N  0.88640835  0.83119716  0.06637464    -0.28060
C20         C  0.89351742  0.86852006  0.06095750    -0.03300
C21         C  0.92024636  0.86995293  0.04266768     0.05310
C22         C  0.92790974  0.83169235  0.03751163     0.03400
H23         H  0.88044251  0.89251100  0.07025638     0.08510
H24         H  0.94811899  0.82078816  0.02553618     0.07340
N25         N  0.21304220  0.77695443  0.12033639    -0.27050
N26         N  0.21163755  0.73958248  0.12739581    -0.34900
C27         C  0.23549201  0.72958661  0.14634816     0.01290
C28         C  0.25265728  0.76217163  0.15143972     0.07320
C29         C  0.23778511  0.79165179  0.13464281    -0.05780
H30         H  0.24002150  0.70068509  0.15557484     0.07990
H31         H  0.24447155  0.82155499  0.13277110     0.09190
Cu32       Cu  0.17800258  0.70299154  0.11084364     0.44170
Cu33       Cu  0.18193667  0.80714769  0.09138864     0.41990
Cu34       Cu  0.12651844  0.74853492  0.05309880     0.43880
N35         N  0.14253267  0.67403335  0.08872113    -0.34430
N36         N  0.12432920  0.69111406  0.06699133    -0.28690
C37         C  0.10372267  0.66575206  0.05680083    -0.04790
C38         C  0.10893152  0.63084407  0.07289451     0.07430
C39         C  0.13381295  0.63707393  0.09302660     0.01230
H40         H  0.08574258  0.67253954  0.03943188     0.08880
H41         H  0.14492414  0.61636723  0.10930757     0.07960
N42         N  0.12781778  0.80765993  0.04688123    -0.35880
N43         N  0.14775032  0.82978678  0.06171835    -0.28060
C44         C  0.13968421  0.86699824  0.05716363    -0.03300
C45         C  0.11372124  0.86813331  0.03807551     0.05310
C46         C  0.10670384  0.83002954  0.03234063     0.03400
H47         H  0.15045979  0.89111593  0.06904726     0.08510
H48         H  0.08624106  0.81930565  0.02115836     0.07340
N49         N  0.91226513  0.19589959  0.00671091    -0.27050
N50         N  0.89284917  0.17686621  0.48825821    -0.34900
C51         C  0.90164625  0.13957692  0.48701134     0.01290
C52         C  0.92767557  0.13511858  0.00592985     0.07320
C53         C  0.93384975  0.17166567  0.01749609    -0.05780
H54         H  0.89008231  0.11746991  0.47325707     0.07990
H55         H  0.95319529  0.18054859  0.03182851     0.09190
Cu56       Cu  0.85621607  0.20414373  0.46539801     0.44170
Cu57       Cu  0.91004943  0.25406982  0.01614552     0.41990
Cu58       Cu  0.85449656  0.31030411  0.47429282     0.43880
N59         N  0.82260379  0.24034435  0.44620136    -0.34430
N60         N  0.82217929  0.27834688  0.44937724    -0.28690
C61         C  0.79734534  0.29265380  0.43440184    -0.04790
C62         C  0.78133583  0.26235131  0.42116215     0.07430
C63         C  0.79798237  0.22960673  0.42908554     0.01230
H64         H  0.79135351  0.32292808  0.43341680     0.08880
H65         H  0.79259272  0.20013833  0.42298271     0.07960
N66         N  0.88831052  0.33464937  0.00289986    -0.35880
N67         N  0.90782152  0.31316315  0.01976817    -0.28060
C68         C  0.92761072  0.33605444  0.03510284    -0.03300
C69         C  0.92038210  0.37388818  0.02742416     0.05310
C70         C  0.89557372  0.37206593  0.00656286     0.03400
H71         H  0.94727775  0.32582887  0.04859507     0.08510
H72         H  0.88456844  0.39591887  0.99382090     0.07340
N73         N  0.12543052  0.18793983  0.00914343    -0.27050
N74         N  0.14375658  0.17194831  0.48706287    -0.34900
C75         C  0.13541258  0.13505281  0.48260526     0.01290
C76         C  0.11095493  0.12759908  0.00326680     0.07320
C77         C  0.10528623  0.16167705  0.01969997    -0.05780
H78         H  0.14587975  0.11547478  0.46512472     0.07990
H79         H  0.08679457  0.16758190  0.03668387     0.09190
Cu80       Cu  0.17849616  0.20196670  0.46365952     0.44170
Cu81       Cu  0.12559640  0.24584769  0.02070487     0.41990
Cu82       Cu  0.18137204  0.30530390  0.48028765     0.43880
N83         N  0.21211832  0.23846521  0.44589214    -0.34430
N84         N  0.21316775  0.27588563  0.45195422    -0.28690
C85         C  0.23784111  0.29083562  0.43712621    -0.04790
C86         C  0.25308026  0.26141371  0.42107357     0.07430
C87         C  0.23616638  0.22862481  0.42715142     0.01230
H88         H  0.24425378  0.32084679  0.43816318     0.08880
H89         H  0.24098069  0.19970911  0.41869867     0.07960
N90         N  0.14587910  0.32741019  0.00823323    -0.35880
N91         N  0.12562842  0.30533160  0.02324206    -0.28060
C92         C  0.10425173  0.32778541  0.03695099    -0.03300
C93         C  0.11114025  0.36598394  0.03009657     0.05310
C94         C  0.13791435  0.36463961  0.01204935     0.03400
H95         H  0.08418081  0.31698086  0.04930819     0.08510
H96         H  0.15033282  0.38871304  0.00165266     0.07340
C97         C  0.01639146  0.97690965  0.52097787     0.00810
C98         C  0.01756192  0.01556040  0.51519728     0.00810
C99         C  0.01755203  0.51667682  0.05675329     0.00810
C100        C  0.01730137  0.47840326  0.05027699     0.00810
N101        N  0.41285297  0.33455301  0.32013277    -0.27050
N102        N  0.39192777  0.35323688  0.33715006    -0.34900
C103        C  0.39937557  0.39091271  0.33802382     0.01290
C104        C  0.42612791  0.39597572  0.32027782     0.07320
C105        C  0.43403161  0.35939901  0.30975107    -0.05780
H106        H  0.38660100  0.41279046  0.35105785     0.07990
H107        H  0.45445811  0.35090899  0.29683955     0.09190
Cu108      Cu  0.35559813  0.32436282  0.35892414     0.44170
Cu109      Cu  0.41332162  0.27587591  0.31325747     0.41990
Cu110      Cu  0.35493794  0.21756986  0.34735335     0.43880
N111        N  0.32242963  0.28701314  0.37696754    -0.34430
N112        N  0.32214162  0.24917070  0.37256785    -0.28690
C113        C  0.29742232  0.23442874  0.38743520    -0.04790
C114        C  0.28143010  0.26425164  0.40193030     0.07430
C115        C  0.29789744  0.29715262  0.39483700     0.01230
H116        H  0.29167177  0.20415086  0.38780317     0.08880
H117        H  0.29249927  0.32634582  0.40210493     0.07960
N118        N  0.39159650  0.19441679  0.32185257    -0.35880
N119        N  0.41287128  0.21680766  0.30925149    -0.28060
C120        C  0.43401250  0.19496115  0.29465398    -0.03300
C121        C  0.42594029  0.15662648  0.29814633     0.05310
C122        C  0.39875973  0.15728809  0.31557715     0.03400
H123        H  0.45424228  0.20623939  0.28295621     0.08510
H124        H  0.38512427  0.13286973  0.32295749     0.07340
N125        N  0.62655374  0.33956236  0.31237688    -0.27050
N126        N  0.64528887  0.35559199  0.33367663    -0.34900
C127        C  0.63738417  0.39285276  0.33754568     0.01290
C128        C  0.61291710  0.40073877  0.31712369     0.07320
C129        C  0.60658184  0.36625386  0.30170381    -0.05780
H130        H  0.64770522  0.41221490  0.35509752     0.07990
H131        H  0.58733871  0.36023066  0.28607108     0.09190
Cu132      Cu  0.67906645  0.32470023  0.35814622     0.44170
Cu133      Cu  0.62525598  0.28078840  0.30392809     0.41990
Cu134      Cu  0.67745042  0.21994336  0.35032648     0.43880
N135        N  0.71169673  0.28770712  0.37779175    -0.34430
N136        N  0.71132216  0.24971579  0.37487767    -0.28690
C137        C  0.73598901  0.23474828  0.38985437    -0.04790
C138        C  0.75260876  0.26476419  0.40279373     0.07430
C139        C  0.73653188  0.29787153  0.39468280     0.01230
H140        H  0.74141709  0.20431277  0.39113056     0.08880
H141        H  0.74248278  0.32725876  0.40044285     0.07960
N142        N  0.64132092  0.19871268  0.32313899    -0.35880
N143        N  0.62299800  0.22113942  0.30541875    -0.28060
C144        C  0.60179740  0.19928054  0.29116710    -0.03300
C145        C  0.60693999  0.16133592  0.30037376     0.05310
C146        C  0.63202643  0.16187234  0.32081698     0.03400
H147        H  0.58331765  0.21037546  0.27621416     0.08510
H148        H  0.64240329  0.13749427  0.33347688     0.07340
N149        N  0.40543972  0.83596512  0.25984081    -0.27050
N150        N  0.39048948  0.85233494  0.23491145    -0.34900
C151        C  0.40329168  0.88666394  0.22748814     0.01290
C152        C  0.42767207  0.89173441  0.24867104     0.07320
C153        C  0.42759514  0.85940343  0.26937135    -0.05780
H154        H  0.39658336  0.90525669  0.20687894     0.07990
H155        H  0.44357921  0.85209416  0.28881043     0.09190
Cu156      Cu  0.35554978  0.82393378  0.21119292     0.44170
Cu157      Cu  0.40159121  0.77877651  0.27412047     0.41990
Cu158      Cu  0.35206430  0.71881406  0.22910536     0.43880
N159        N  0.32199857  0.78724178  0.19441716    -0.34430
N160        N  0.32077581  0.74972414  0.20096449    -0.28690
C161        C  0.29598617  0.73515244  0.18668226    -0.04790
C162        C  0.28089078  0.76481674  0.17040723     0.07430
C163        C  0.29796272  0.79741677  0.17580002     0.01230
H164        H  0.28946765  0.70516367  0.18813913     0.08880
H165        H  0.29325909  0.82643750  0.16698303     0.07960
N166        N  0.38647496  0.69659993  0.25865733    -0.35880
N167        N  0.40441991  0.71927852  0.27571366    -0.28060
C168        C  0.42582363  0.69774837  0.29061632    -0.03300
C169        C  0.42132767  0.65940535  0.28263523     0.05310
C170        C  0.39590999  0.65977400  0.26242008     0.03400
H171        H  0.44425928  0.70944947  0.30489647     0.08510
H172        H  0.38522457  0.63538646  0.25089787     0.07340
C173        C  0.51671729  0.55172234  0.31351201     0.00810
C174        C  0.51727695  0.51295689  0.31933278     0.00810
N175        N  0.62949936  0.84121959  0.26695907    -0.27050
N176        N  0.65026661  0.85679961  0.24730578    -0.34900
C177        C  0.64421929  0.89464646  0.24319051     0.01290
C178        C  0.61839355  0.90335427  0.26119951     0.07320
C179        C  0.60978593  0.86881835  0.27606278    -0.05780
H180        H  0.65681194  0.91388008  0.22695461     0.07990
H181        H  0.58936713  0.86357055  0.29032334     0.09190
Cu182      Cu  0.68377522  0.82501627  0.22401004     0.44170
Cu183      Cu  0.62624127  0.78224159  0.27600821     0.41990
Cu184      Cu  0.68006093  0.72093103  0.23234151     0.43880
N185        N  0.71487631  0.78767519  0.20287927    -0.34430
N186        N  0.71386631  0.74968344  0.20610322    -0.28690
C187        C  0.73758527  0.73421288  0.18981135    -0.04790
C188        C  0.75415224  0.76396542  0.17559954     0.07430
C189        C  0.73908516  0.79740275  0.18435884     0.01230
H190        H  0.74230922  0.70364045  0.18834596     0.08880
H191        H  0.74530453  0.82670184  0.17795565     0.07960
N192        N  0.64376970  0.70001047  0.26000924    -0.35880
N193        N  0.62471710  0.72234042  0.27657695    -0.28060
C194        C  0.60331326  0.70017878  0.29082039    -0.03300
C195        C  0.60916466  0.66219705  0.28283562     0.05310
C196        C  0.63478521  0.66306935  0.26304602     0.03400
H197        H  0.58402086  0.71110320  0.30450761     0.08510
H198        H  0.64547706  0.63888786  0.25083394     0.07340
C199        C  0.51814689  0.04915866  0.26239729     0.00810
C200        C  0.52130223  0.01065395  0.25531267     0.00810
C201        C  0.59967664  0.93880041  0.25943205     0.00090
C202        C  0.58739447  0.95327537  0.28917816    -0.11790
C203        C  0.56414945  0.98081117  0.28845752     0.02330
C204        C  0.55229556  0.99341067  0.25738607     0.00000
C205        C  0.56598202  0.98090118  0.22776004    -0.11720
C206        C  0.58997715  0.95451554  0.22851301     0.02210
H207        H  0.59464407  0.94117961  0.31298811     0.15190
H208        H  0.55637722  0.98953584  0.20391906     0.15190
C209        C  0.60206778  0.94136047  0.19705520     0.36840
C210        C  0.54954878  0.99071850  0.31957137     0.36750
N211        N  0.61181872  0.93105892  0.17178003    -0.43500
N212        N  0.53763411  0.99831901  0.34445908    -0.43500
C213        C  0.54450960  0.57402559  0.30515815     0.00090
C214        C  0.54705718  0.58919909  0.27252488    -0.11790
C215        C  0.56898408  0.61660079  0.26437936     0.02330
C216        C  0.58895720  0.62927533  0.28914551     0.00000
C217        C  0.58770583  0.61262601  0.32123559    -0.11720
C218        C  0.56589252  0.58481750  0.32935121     0.02210
H219        H  0.53097949  0.58079705  0.25362453     0.15190
H220        H  0.60322621  0.62225669  0.34025769     0.15190
C221        C  0.56516899  0.56957767  0.36302540     0.36840
C222        C  0.56929401  0.63310522  0.23105209     0.36750
N223        N  0.56511273  0.55795197  0.39026447    -0.43500
N224        N  0.56945398  0.64639163  0.20436721    -0.43500
C225        C  0.49584214  0.98147727  0.25050702     0.00090
C226        C  0.50224812  0.94251416  0.25922201    -0.11790
C227        C  0.48143478  0.91307537  0.25564358     0.02330
C228        C  0.45143967  0.92189292  0.24714528     0.00000
C229        C  0.44470428  0.95969707  0.23647267    -0.11720
C230        C  0.46694890  0.98873879  0.23604015     0.02210
H231        H  0.52410651  0.93357751  0.26800358     0.15190
H232        H  0.42231208  0.96623561  0.22716414     0.15190
C233        C  0.46004305  0.02254468  0.21621050     0.36840
C234        C  0.49267060  0.87384618  0.25778254     0.36750
N235        N  0.45313133  0.04836517  0.19924198    -0.43500
N236        N  0.50202981  0.84260622  0.25884502    -0.43500
C237        C  0.44155313  0.62674739  0.29227663     0.00090
C238        C  0.45664812  0.62899137  0.32298672    -0.11790
C239        C  0.47977087  0.60315102  0.33136578     0.02330
C240        C  0.48787579  0.57353225  0.30917145     0.00000
C241        C  0.47144868  0.56940300  0.27949958    -0.11720
C242        C  0.44857548  0.59577536  0.27074539     0.02210
H243        H  0.45114801  0.65203081  0.34011000     0.15190
H244        H  0.47797466  0.54714486  0.26202030     0.15190
C245        C  0.43489004  0.59211978  0.23828050     0.36840
C246        C  0.49540899  0.60868024  0.36249344     0.36750
N247        N  0.42414051  0.58895868  0.21213821    -0.43500
N248        N  0.50742206  0.61364517  0.38769766    -0.43500
C249        C  0.58745495  0.12839704  0.29246817     0.00090
C250        C  0.58822610  0.11337176  0.26010265    -0.11790
C251        C  0.56718519  0.08577836  0.25006768     0.02330
C252        C  0.54462194  0.07310536  0.27271360     0.00000
C253        C  0.54482660  0.08723677  0.30556122    -0.11720
C254        C  0.56590422  0.11462841  0.31553372     0.02210
H255        H  0.60469999  0.12424949  0.24226630     0.15190
H256        H  0.52765094  0.07788875  0.32320706     0.15190
C257        C  0.56371794  0.13001319  0.34886118     0.36840
C258        C  0.56827052  0.07314349  0.21586686     0.36750
N259        N  0.56180644  0.14241848  0.37552981    -0.43500
N260        N  0.56952835  0.06366761  0.18824311    -0.43500
C261        C  0.59263903  0.43462214  0.31825957     0.00090
C262        C  0.57840238  0.44326925  0.34858609    -0.11790
C263        C  0.55483442  0.47022894  0.34980569     0.02330
C264        C  0.54601910  0.49039256  0.32049290     0.00000
C265        C  0.56171566  0.48353564  0.29052558    -0.11720
C266        C  0.58455943  0.45542587  0.28911369     0.02210
H267        H  0.58439566  0.42708578  0.37100075     0.15190
H268        H  0.55482357  0.49843461  0.26779310     0.15190
C269        C  0.59883195  0.44758952  0.25739189     0.36840
C270        C  0.53937841  0.47525561  0.38127250     0.36750
N271        N  0.61029560  0.44121245  0.23198681    -0.43500
N272        N  0.52755281  0.47876898  0.40691269    -0.43500
C273        C  0.44410803  0.12352606  0.28589432     0.00090
C274        C  0.46060114  0.12918522  0.25628951    -0.11790
C275        C  0.48303830  0.10328029  0.24666123     0.02330
C276        C  0.48888519  0.06988758  0.26622007     0.00000
C277        C  0.47061766  0.06225073  0.29429775    -0.11720
C278        C  0.44840203  0.08887977  0.30439472     0.02210
H279        H  0.45690493  0.15502124  0.24126075     0.15190
H280        H  0.47540451  0.03712908  0.30982963     0.15190
C281        C  0.43259714  0.08161597  0.33540630     0.36840
C282        C  0.49983992  0.11202875  0.21652506     0.36750
N283        N  0.42000398  0.07574853  0.36034210    -0.43500
N284        N  0.51255861  0.11958745  0.19200680    -0.43500
C285        C  0.44499903  0.43110952  0.31698865     0.00090
C286        C  0.44650174  0.45704450  0.34370046    -0.11790
C287        C  0.46835285  0.48622546  0.34409686     0.02330
C288        C  0.48939415  0.48922696  0.31764841     0.00000
C289        C  0.48591417  0.46580885  0.28961264    -0.11720
C290        C  0.46383254  0.43730041  0.28884048     0.02210
H291        H  0.43169451  0.45330878  0.36511929     0.15190
H292        H  0.50116593  0.46910294  0.26850645     0.15190
C293        C  0.46112682  0.41496531  0.25874768     0.36840
C294        C  0.46938533  0.51140173  0.37248925     0.36750
N295        N  0.45906192  0.39721866  0.23453823    -0.43500
N296        N  0.46976368  0.53132942  0.39549040    -0.43500
C297        C  0.09167496  0.09310559  0.00461808     0.00090
C298        C  0.08602661  0.07561254  0.03580928    -0.11790
C299        C  0.06369979  0.04745068  0.03947403     0.02330
C300        C  0.04639719  0.03686935  0.51156722     0.00000
C301        C  0.05327541  0.05277353  0.48004235    -0.11720
C302        C  0.07573975  0.08068871  0.47632346     0.02210
H303        H  0.09822747  0.08520615  0.05762120     0.15190
H304        H  0.03983138  0.04496468  0.45858413     0.15190
C305        C  0.07986840  0.09876553  0.44392302     0.36840
C306        C  0.05766334  0.03196168  0.07245155     0.36750
N307        N  0.08300339  0.11336231  0.41797325    -0.43500
N308        N  0.05302975  0.01981021  0.09904023    -0.43500
C309        C  0.04551832  0.45498792  0.04854238     0.00090
C310        C  0.06353992  0.45708149  0.01971231    -0.11790
C311        C  0.08625504  0.42974059  0.01378348     0.02330
C312        C  0.09136058  0.39959447  0.03728167     0.00000
C313        C  0.07480810  0.39937105  0.06730584    -0.11720
C314        C  0.05219145  0.42681371  0.07316848     0.02210
H315        H  0.05869573  0.47869723  0.00074528     0.15190
H316        H  0.07899609  0.37697371  0.08592313     0.15190
C317        C  0.03596334  0.42509448  0.10450499     0.36840
C318        C  0.10189831  0.43164149  0.48209589     0.36750
N319        N  0.02326422  0.42353342  0.12982339    -0.43500
N320        N  0.11429224  0.43339539  0.45660009    -0.43500
C321        C  0.94676038  0.10013838  0.01058129     0.00090
C322        C  0.95042557  0.07430310  0.48397253    -0.11790
C323        C  0.97201183  0.04453844  0.48560467     0.02330
C324        C  0.99007568  0.04025814  0.51432937     0.00000
C325        C  0.98477066  0.06406575  0.04177335    -0.11720
C326        C  0.96333379  0.09364042  0.04029822     0.02210
H327        H  0.93764314  0.07861702  0.46116964     0.15190
H328        H  0.99821288  0.06032786  0.06417471     0.15190
C329        C  0.95912489  0.11683882  0.06973275     0.36840
C330        C  0.97630957  0.02017422  0.45696454     0.36750
N331        N  0.95600753  0.13537817  0.09339251    -0.43500
N332        N  0.97963113  0.00067788  0.43393673    -0.43500
C333        C  0.94036901  0.40693169  0.03300888     0.00090
C334        C  0.95671087  0.42177782  0.00578734    -0.11790
C335        C  0.98086875  0.44681351  0.01078516     0.02330
C336        C  0.98863902  0.45777239  0.04352479     0.00000
C337        C  0.97051675  0.44558411  0.07043928    -0.11720
C338        C  0.94678792  0.41979620  0.06548083     0.02210
H339        H  0.95176688  0.41193208  0.98075904     0.15190
H340        H  0.97580360  0.45467800  0.09553006     0.15190
C341        C  0.92985168  0.40604428  0.09408301     0.36840
C342        C  0.99778187  0.45976385  0.98191698     0.36750
N343        N  0.91622642  0.39506425  0.11699733    -0.43500
N344        N  0.01101537  0.46973663  0.45838587    -0.43500
C345        C  0.09221105  0.90041038  0.03506998     0.00090
C346        C  0.07113179  0.90530588  0.06077319    -0.11790
C347        C  0.04725924  0.93143934  0.05723248     0.02330
C348        C  0.04414858  0.95332975  0.02733046     0.00000
C349        C  0.06630123  0.94980444  0.50224826    -0.11720
C350        C  0.09022658  0.92343582  0.00592380     0.02210
H351        H  0.07280138  0.88765144  0.08329043     0.15190
H352        H  0.06411306  0.96628855  0.47917926     0.15190
C353        C  0.11196433  0.91955595  0.47920526     0.36840
C354        C  0.02630194  0.93491384  0.08477989     0.36750
N355        N  0.12949812  0.91643711  0.45787838    -0.43500
N356        N  0.00981965  0.93743380  0.10717877    -0.43500
C357        C  0.09053412  0.59565898  0.06879733     0.00090
C358        C  0.07938116  0.58810328  0.03679003    -0.11790
C359        C  0.05731165  0.56022123  0.03190977     0.02330
C360        C  0.04603509  0.53888450  0.05944922     0.00000
C361        C  0.05904652  0.54390187  0.09102025    -0.11720
C362        C  0.08105993  0.57221853  0.09599053     0.02210
H363        H  0.08705468  0.60526210  0.01557585     0.15190
H364        H  0.05079186  0.52721969  0.11218703     0.15190
C365        C  0.09137542  0.57875013  0.12961045     0.36840
C366        C  0.04595286  0.55540255  0.99847406     0.36750
N367        N  0.09950852  0.58392084  0.15664234    -0.43500
N368        N  0.03735255  0.55192472  0.97140271    -0.43500
C369        C  0.93962407  0.90337755  0.03354206     0.00090
C370        C  0.95839506  0.89974420  0.50533193    -0.11790
C371        C  0.98214017  0.92523962  0.49948319     0.02330
C372        C  0.98721489  0.95570630  0.02173575     0.00000
C373        C  0.96649866  0.96211407  0.04774053    -0.11720
C374        C  0.94298506  0.93607921  0.05408417     0.02210
H375        H  0.95548505  0.87567606  0.48859956     0.15190
H376        H  0.97026970  0.98555066  0.06490265     0.15190
C377        C  0.92481803  0.94198832  0.08360301     0.36840
C378        C  0.00166651  0.91864175  0.47109293     0.36750
N379        N  0.91044809  0.94707410  0.10739089    -0.43500
N380        N  0.01724070  0.91328732  0.44829929    -0.43500
C381        C  0.98916549  0.53945690  0.05974029     0.00090
C382        C  0.97665650  0.55606112  0.03083902    -0.11790
C383        C  0.95442291  0.58468856  0.03305941     0.02330
C384        C  0.94365818  0.59620390  0.06471561     0.00000
C385        C  0.95395264  0.57670824  0.09345512    -0.11720
C386        C  0.97677496  0.54870142  0.09121546     0.02210
H387        H  0.98511462  0.54782872  0.00652243     0.15190
H388        H  0.94550327  0.58499334  0.11783872     0.15190
C389        C  0.98761734  0.53062476  0.12158417     0.36840
C390        C  0.94347181  0.60229154  0.00249970     0.36750
N391        N  0.99608656  0.51604726  0.14600663    -0.43500
N392        N  0.93481263  0.61647448  0.97798954    -0.43500
N393        N  0.82115311  0.77638244  0.62372328    -0.27050
N394        N  0.82253720  0.73871080  0.62956877    -0.34900
C395        C  0.79885018  0.72838598  0.64881433     0.01290
C396        C  0.78192924  0.76109311  0.65547282     0.07320
C397        C  0.79672828  0.79092577  0.63922828    -0.05780
H398        H  0.79438770  0.69926310  0.65739276     0.07990
H399        H  0.79021257  0.82103788  0.63856962     0.09190
Cu400      Cu  0.85623174  0.70233078  0.61138258     0.44170
Cu401      Cu  0.85179156  0.80771072  0.59501367     0.41990
Cu402      Cu  0.90824071  0.75008877  0.55616217     0.43880
N403        N  0.89143693  0.67380855  0.58728156    -0.34430
N404        N  0.90961720  0.69176635  0.56605693    -0.28690
C405        C  0.92997461  0.66664797  0.55416467    -0.04790
C406        C  0.92448263  0.63092332  0.56847813     0.07430
C407        C  0.90008698  0.63651629  0.58974179     0.01230
H408        H  0.94828795  0.67428671  0.53741510     0.08880
H409        H  0.88964627  0.61523429  0.60596761     0.07960
N410        N  0.90708856  0.80926614  0.55215670    -0.35880
N411        N  0.88641041  0.83120042  0.56637312    -0.28060
C412        C  0.89352010  0.86852309  0.56095561    -0.03300
C413        C  0.92024948  0.86995517  0.54266639     0.05310
C414        C  0.92791239  0.83169430  0.53751104     0.03400
H415        H  0.88044524  0.89251439  0.57025384     0.08510
H416        H  0.94812172  0.82078936  0.52553628     0.07340
N417        N  0.21304699  0.77695397  0.62033247    -0.27050
N418        N  0.21164082  0.73958241  0.62739312    -0.34900
C419        C  0.23549395  0.72958628  0.64634746     0.01290
C420        C  0.25265984  0.76217077  0.65143904     0.07320
C421        C  0.23778948  0.79165082  0.63464007    -0.05780
H422        H  0.24002203  0.70068503  0.65557564     0.07990
H423        H  0.24447680  0.82155367  0.63276789     0.09190
Cu424      Cu  0.17800526  0.70299256  0.61084056     0.44170
Cu425      Cu  0.18194382  0.80714796  0.59138231     0.41990
Cu426      Cu  0.12652333  0.74853740  0.55309433     0.43880
N427        N  0.14253461  0.67403574  0.58871808    -0.34430
N428        N  0.12433191  0.69111689  0.56698773    -0.28690
C429        C  0.10372454  0.66575577  0.55679757    -0.04790
C430        C  0.10893200  0.63084793  0.57289209     0.07430
C431        C  0.13381354  0.63707695  0.59302424     0.01230
H432        H  0.08574482  0.67254380  0.53942830     0.08880
H433        H  0.14492390  0.61637008  0.60930575     0.07960
N434        N  0.12782412  0.80766237  0.54687647    -0.35880
N435        N  0.14775782  0.82978851  0.56171248    -0.28060
C436        C  0.13969217  0.86700028  0.55715849    -0.03300
C437        C  0.11372810  0.86813627  0.53807225     0.05310
C438        C  0.10670977  0.83003272  0.53233756     0.03400
H439        H  0.15046849  0.89111744  0.56904210     0.08510
H440        H  0.08624602  0.81930950  0.52115697     0.07340
N441        N  0.91226814  0.19589910  0.50670847    -0.27050
N442        N  0.89284627  0.17686696  0.98826034    -0.34900
C443        C  0.90164330  0.13957772  0.98701310     0.01290
C444        C  0.92767859  0.13511809  0.50592807     0.07320
C445        C  0.93385278  0.17166535  0.51749383    -0.05780
H446        H  0.89007945  0.11747100  0.97325840     0.07990
H447        H  0.95319830  0.18054845  0.53182621     0.09190
Cu448      Cu  0.85621363  0.20414465  0.96539972     0.44170
Cu449      Cu  0.91005257  0.25406937  0.51614290     0.41990
Cu450      Cu  0.85449441  0.31030490  0.97429357     0.43880
N451        N  0.82260191  0.24034513  0.94620210    -0.34430
N452        N  0.82217750  0.27834769  0.94937758    -0.28690
C453        C  0.79734386  0.29265455  0.93440154    -0.04790
C454        C  0.78133450  0.26235193  0.92116189     0.07430
C455        C  0.79798076  0.22960737  0.92908593     0.01230
H456        H  0.79135212  0.32292885  0.93341610     0.08880
H457        H  0.79259111  0.20013891  0.92298333     0.07960
N458        N  0.88831321  0.33464885  0.50289832    -0.35880
N459        N  0.90782474  0.31316268  0.51976591    -0.28060
C460        C  0.92761411  0.33605401  0.53510028    -0.03300
C461        C  0.92038503  0.37388777  0.52742219     0.05310
C462        C  0.89557620  0.37206547  0.50656152     0.03400
H463        H  0.94728143  0.32582852  0.54859205     0.08510
H464        H  0.88457039  0.39591846  0.49382021     0.07340
N465        N  0.12543348  0.18794363  0.50914878    -0.27050
N466        N  0.14375345  0.17194476  0.98705719    -0.34900
C467        C  0.13540898  0.13504951  0.98259887     0.01290
C468        C  0.11095865  0.12760238  0.50327330     0.07320
C469        C  0.10528946  0.16168069  0.51970580    -0.05780
H470        H  0.14587624  0.11547149  0.96511840     0.07990
H471        H  0.08679742  0.16758576  0.53668913     0.09190
Cu472      Cu  0.17849406  0.20196310  0.96365541     0.44170
Cu473      Cu  0.12559859  0.24585212  0.52070823     0.41990
Cu474      Cu  0.18137052  0.30529984  0.98028705     0.43880
N475        N  0.21211700  0.23846207  0.94589020    -0.34430
N476        N  0.21316654  0.27588221  0.95195352    -0.28690
C477        C  0.23784025  0.29083261  0.93712655    -0.04790
C478        C  0.25307957  0.26141130  0.92107330     0.07430
C479        C  0.23616539  0.22862229  0.92714972     0.01230
H480        H  0.24425302  0.32084368  0.93816460     0.08880
H481        H  0.24097967  0.19970695  0.91869605     0.07960
N482        N  0.14588083  0.32741454  0.50823398    -0.35880
N483        N  0.12563044  0.30533622  0.52324365    -0.28060
C484        C  0.10425387  0.32779030  0.53695245    -0.03300
C485        C  0.11114214  0.36598871  0.53009711     0.05310
C486        C  0.13791598  0.36464403  0.51204945     0.03400
H487        H  0.08418319  0.31698595  0.54931028     0.08510
H488        H  0.15033427  0.38871725  0.50165209     0.07340
C489        C  0.01638654  0.97690835  0.02097660     0.00810
C490        C  0.01755768  0.01555892  0.01519585     0.00810
C491        C  0.01755192  0.51668007  0.55675202     0.00810
C492        C  0.01730207  0.47840643  0.55027595     0.00810
N493        N  0.41285316  0.33455297  0.82013480    -0.27050
N494        N  0.39192809  0.35323672  0.83715240    -0.34900
C495        C  0.39937602  0.39091255  0.83802639     0.01290
C496        C  0.42612828  0.39597565  0.82028019     0.07320
C497        C  0.43403180  0.35939899  0.80975314    -0.05780
H498        H  0.38660154  0.41279026  0.85106055     0.07990
H499        H  0.45445814  0.35090904  0.79684128     0.09190
Cu500      Cu  0.35559821  0.32436244  0.85892618     0.44170
Cu501      Cu  0.41332171  0.27587596  0.81325869     0.41990
Cu502      Cu  0.35493808  0.21756962  0.84735369     0.43880
N503        N  0.32242949  0.28701223  0.87696875    -0.34430
N504        N  0.32214157  0.24916990  0.87256835    -0.28690
C505        C  0.29742214  0.23442747  0.88743508    -0.04790
C506        C  0.28142970  0.26424991  0.90193056     0.07430
C507        C  0.29789708  0.29715115  0.89483812     0.01230
H508        H  0.29167164  0.20414958  0.88780234     0.08880
H509        H  0.29249873  0.32634414  0.90210650     0.07960
N510        N  0.39159669  0.19441675  0.82185291    -0.35880
N511        N  0.41287150  0.21680773  0.80925206    -0.28060
C512        C  0.43401277  0.19496133  0.79465448    -0.03300
C513        C  0.42594056  0.15662663  0.79814659     0.05310
C514        C  0.39875994  0.15728811  0.81557730     0.03400
H515        H  0.45424259  0.20623965  0.78295685     0.08510
H516        H  0.38512446  0.13286968  0.82295745     0.07340
N517        N  0.62655387  0.33956229  0.81237429    -0.27050
N518        N  0.64528912  0.35559190  0.83367391    -0.34900
C519        C  0.63738459  0.39285269  0.83754295     0.01290
C520        C  0.61291746  0.40073876  0.81712112     0.07320
C521        C  0.60658200  0.36625387  0.80170130    -0.05780
H522        H  0.64770568  0.41221473  0.85509484     0.07990
H523        H  0.58733869  0.36023071  0.78606882     0.09190
Cu524      Cu  0.67906633  0.32470020  0.85814382     0.44170
Cu525      Cu  0.62525583  0.28078828  0.80392592     0.41990
Cu526      Cu  0.67744983  0.21994350  0.85032548     0.43880
N527        N  0.71169617  0.28770735  0.87779016    -0.34430
N528        N  0.71132146  0.24971598  0.87487660    -0.28690
C529        C  0.73598807  0.23474857  0.88985383    -0.04790
C530        C  0.75260775  0.26476464  0.90279299     0.07430
C531        C  0.73653113  0.29787194  0.89468140     0.01230
H532        H  0.74141600  0.20431305  0.89113055     0.08880
H533        H  0.74248206  0.32725924  0.90044116     0.07960
N534        N  0.64132045  0.19871280  0.82313802    -0.35880
N535        N  0.62299773  0.22113935  0.80541733    -0.28060
C536        C  0.60179721  0.19928032  0.79116573    -0.03300
C537        C  0.60693962  0.16133584  0.80037296     0.05310
C538        C  0.63202588  0.16187247  0.82081640     0.03400
H539        H  0.58331762  0.21037505  0.77621243     0.08510
H540        H  0.64240262  0.13749455  0.83347665     0.07340
N541        N  0.40544007  0.83596519  0.75984385    -0.27050
N542        N  0.39048930  0.85233464  0.73491469    -0.34900
C543        C  0.40329117  0.88666364  0.72749076     0.01290
C544        C  0.42767191  0.89173450  0.74867302     0.07320
C545        C  0.42759561  0.85940377  0.76937360    -0.05780
H546        H  0.39658249  0.90525598  0.70688145     0.07990
H547        H  0.44358029  0.85209478  0.78881215     0.09190
Cu548      Cu  0.35554978  0.82393286  0.71119671     0.44170
Cu549      Cu  0.40159184  0.77877672  0.77412399     0.41990
Cu550      Cu  0.35206353  0.71881377  0.72911037     0.43880
N551        N  0.32199900  0.78724086  0.69442035    -0.34430
N552        N  0.32077576  0.74972338  0.70096820    -0.28690
C553        C  0.29598666  0.73515162  0.68668486    -0.04790
C554        C  0.28089222  0.76481577  0.67040851     0.07430
C555        C  0.29796410  0.79741572  0.67580174     0.01230
H556        H  0.28946801  0.70516290  0.68814160     0.08880
H557        H  0.29326115  0.82643629  0.66698389     0.07960
N558        N  0.38647462  0.69660007  0.75866191    -0.35880
N559        N  0.40442008  0.71927871  0.77571756    -0.28060
C560        C  0.42582412  0.69774857  0.79061965    -0.03300
C561        C  0.42132785  0.65940554  0.78263884     0.05310
C562        C  0.39590965  0.65977414  0.76242452     0.03400
H563        H  0.44426023  0.70944967  0.80489907     0.08510
H564        H  0.38522397  0.63538659  0.75090264     0.07340
C565        C  0.51671810  0.55172233  0.81351220     0.00810
C566        C  0.51727755  0.51295686  0.81933296     0.00810
N567        N  0.62949943  0.84121938  0.76695819    -0.27050
N568        N  0.65026683  0.85679990  0.74730540    -0.34900
C569        C  0.64421943  0.89464678  0.74319060     0.01290
C570        C  0.61839345  0.90335412  0.76119936     0.07320
C571        C  0.60978579  0.86881786  0.77606204    -0.05780
H572        H  0.65681219  0.91388076  0.72695512     0.07990
H573        H  0.58936686  0.86356967  0.79032224     0.09190
Cu574      Cu  0.68377562  0.82501720  0.72400939     0.44170
Cu575      Cu  0.62624163  0.78224114  0.77600639     0.41990
Cu576      Cu  0.68006139  0.72093156  0.73233852     0.43880
N577        N  0.71487681  0.78767691  0.70287785    -0.34430
N578        N  0.71386689  0.74968506  0.70610092    -0.28690
C579        C  0.73758600  0.73421520  0.68980878    -0.04790
C580        C  0.75415295  0.76396829  0.67559772     0.07430
C581        C  0.73908570  0.79740521  0.68435774     0.01230
H582        H  0.74231008  0.70364285  0.68834270     0.08880
H583        H  0.74530500  0.82670454  0.67795530     0.07960
N584        N  0.64377019  0.70001025  0.76000627    -0.35880
N585        N  0.62471769  0.72233993  0.77657443    -0.28060
C586        C  0.60331409  0.70017806  0.79081806    -0.03300
C587        C  0.60916545  0.66219642  0.78283296     0.05310
C588        C  0.63478578  0.66306903  0.76304295     0.03400
H589        H  0.58402189  0.71110228  0.80450575     0.08510
H590        H  0.64547762  0.63888766  0.75083068     0.07340
C591        C  0.51814677  0.04915851  0.76239670     0.00810
C592        C  0.52130214  0.01065381  0.75531204     0.00810
C593        C  0.59967646  0.93880021  0.75943204     0.00090
C594        C  0.58739373  0.95327456  0.78917811    -0.11790
C595        C  0.56414878  0.98081044  0.78845736     0.02330
C596        C  0.55229550  0.99341066  0.75738583     0.00000
C597        C  0.56598250  0.98090177  0.72775991    -0.11720
C598        C  0.58997757  0.95451603  0.72851302     0.02210
H599        H  0.59464288  0.94117829  0.81298804     0.15190
H600        H  0.55637810  0.98953684  0.70391884     0.15190
C601        C  0.60206871  0.94136156  0.69705525     0.36840
C602        C  0.54954753  0.99071720  0.81957103     0.36750
N603        N  0.61182006  0.93106051  0.67178012    -0.43500
N604        N  0.53763239  0.99831728  0.84445857    -0.43500
C605        C  0.54451041  0.57402532  0.80515747     0.00090
C606        C  0.54705738  0.58919871  0.77252409    -0.11790
C607        C  0.56898436  0.61660010  0.76437786     0.02330
C608        C  0.58895816  0.62927453  0.78914338     0.00000
C609        C  0.58770737  0.61262530  0.82123354    -0.11720
C610        C  0.56589402  0.58481705  0.82934986     0.02210
H611        H  0.53097919  0.58079682  0.75362422     0.15190
H612        H  0.60322823  0.62225589  0.84025519     0.15190
C613        C  0.56517119  0.56957727  0.86302409     0.36840
C614        C  0.56929367  0.63310437  0.73105053     0.36750
N615        N  0.56511551  0.55795156  0.89026315    -0.43500
N616        N  0.56945316  0.64639066  0.70436560    -0.43500
C617        C  0.49584214  0.98147699  0.75050621     0.00090
C618        C  0.50224860  0.94251356  0.75921979    -0.11790
C619        C  0.48143498  0.91307496  0.75564229     0.02330
C620        C  0.45143949  0.92189285  0.74714603     0.00000
C621        C  0.44470368  0.95969714  0.73647419    -0.11720
C622        C  0.46694833  0.98873879  0.73604084     0.02210
H623        H  0.52410745  0.93357650  0.76799968     0.15190
H624        H  0.42231107  0.96623584  0.72716695     0.15190
C625        C  0.46004181  0.02254475  0.71621156     0.36840
C626        C  0.49267065  0.87384563  0.75778028     0.36750
N627        N  0.45312952  0.04836526  0.69924335    -0.43500
N628        N  0.50202969  0.84260556  0.75884200    -0.43500
C629        C  0.44155359  0.62674763  0.79227942     0.00090
C630        C  0.45664930  0.62899137  0.82298908    -0.11790
C631        C  0.47977225  0.60315099  0.83136730     0.02330
C632        C  0.48787665  0.57353245  0.80917251     0.00000
C633        C  0.47144890  0.56940347  0.77950107    -0.11720
C634        C  0.44857551  0.59577588  0.77074771     0.02210
H635        H  0.45114956  0.65203066  0.84011267     0.15190
H636        H  0.47797448  0.54714550  0.76202145     0.15190
C637        C  0.43488942  0.59212069  0.73828312     0.36840
C638        C  0.49541110  0.60867987  0.86249456     0.36750
N639        N  0.42413938  0.58895993  0.71214105    -0.43500
N640        N  0.50742476  0.61364449  0.88769848    -0.43500
C641        C  0.58745472  0.12839688  0.79246742     0.00090
C642        C  0.58822564  0.11337198  0.76010178    -0.11790
C643        C  0.56718481  0.08577850  0.75006686     0.02330
C644        C  0.54462184  0.07310512  0.77271295     0.00000
C645        C  0.54482679  0.08723606  0.80556072    -0.11720
C646        C  0.56590437  0.11462775  0.81553318     0.02210
H647        H  0.60469929  0.12425005  0.74226530     0.15190
H648        H  0.52765135  0.07788768  0.82320669     0.15190
C649        C  0.56371833  0.13001216  0.84886079     0.36840
C650        C  0.56826992  0.07314392  0.71586594     0.36750
N651        N  0.56180702  0.14241716  0.87552954    -0.43500
N652        N  0.56952761  0.06366829  0.68824213    -0.43500
C653        C  0.59263935  0.43462199  0.81825755     0.00090
C654        C  0.57840335  0.44326897  0.84858448    -0.11790
C655        C  0.55483547  0.47022868  0.84980475     0.02330
C656        C  0.54601957  0.49039235  0.82049224     0.00000
C657        C  0.56171546  0.48353554  0.79052448    -0.11720
C658        C  0.58455918  0.45542580  0.78911193     0.02210
H659        H  0.58439711  0.42708544  0.87099895     0.15190
H660        H  0.55482291  0.49843460  0.76779222     0.15190
C661        C  0.59883111  0.44758962  0.75738978     0.36840
C662        C  0.53938018  0.47525536  0.88127200     0.36750
N663        N  0.61029430  0.44121271  0.73198441    -0.43500
N664        N  0.52755517  0.47876875  0.90691252    -0.43500
C665        C  0.44410827  0.12352626  0.78589446     0.00090
C666        C  0.46060123  0.12918543  0.75628955    -0.11790
C667        C  0.48303820  0.10328035  0.74666099     0.02330
C668        C  0.48888514  0.06988757  0.76621974     0.00000
C669        C  0.47061780  0.06225079  0.79429759    -0.11720
C670        C  0.44840230  0.08887991  0.80439476     0.02210
H671        H  0.45690500  0.15502150  0.74126088     0.15190
H672        H  0.47540469  0.03712909  0.80982940     0.15190
C673        C  0.43259756  0.08161610  0.83540644     0.36840
C674        C  0.49983947  0.11202864  0.71652455     0.36750
N675        N  0.42000451  0.07574867  0.86034231    -0.43500
N676        N  0.51255784  0.11958726  0.69200607    -0.43500
C677        C  0.44499937  0.43110951  0.81699064     0.00090
C678        C  0.44650268  0.45704445  0.84370243    -0.11790
C679        C  0.46835382  0.48622545  0.84409829     0.02330
C680        C  0.48939454  0.48922709  0.81764927     0.00000
C681        C  0.48591392  0.46580900  0.78961358    -0.11720
C682        C  0.46383229  0.43730051  0.78884199     0.02210
H683        H  0.43169590  0.45330866  0.86512164     0.15190
H684        H  0.50116522  0.46910311  0.76850698     0.15190
C685        C  0.46112597  0.41496543  0.75874924     0.36840
C686        C  0.46938692  0.51140164  0.87249069     0.36750
N687        N  0.45906060  0.39721879  0.73453984    -0.43500
N688        N  0.46976577  0.53132926  0.89549188    -0.43500
C689        C  0.09167823  0.09310929  0.50462343     0.00090
C690        C  0.08603006  0.07561419  0.53581386    -0.11790
C691        C  0.06370350  0.04745168  0.53947718     0.02330
C692        C  0.04639346  0.03686655  0.01156460     0.00000
C693        C  0.05327208  0.05276827  0.98003889    -0.11720
C694        C  0.07573659  0.08068310  0.97631867     0.02210
H695        H  0.09823103  0.08520633  0.55762619     0.15190
H696        H  0.03982804  0.04495812  0.95858105     0.15190
C697        C  0.07986535  0.09875792  0.94391743     0.36840
C698        C  0.05766743  0.03195951  0.57245371     0.36750
N699        N  0.08300041  0.11335313  0.91796702    -0.43500
N700        N  0.05303391  0.01980482  0.59904133    -0.43500
C701        C  0.04551950  0.45499202  0.54854189     0.00090
C702        C  0.06354124  0.45708563  0.51971192    -0.11790
C703        C  0.08625668  0.42974506  0.51378345     0.02330
C704        C  0.09136242  0.39959929  0.53728192     0.00000
C705        C  0.07480997  0.39937611  0.56730611    -0.11720
C706        C  0.05219298  0.42681841  0.57316838     0.02210
H707        H  0.05869686  0.47870104  0.50074467     0.15190
H708        H  0.07899816  0.37697915  0.58592368     0.15190
C709        C  0.03596480  0.42509935  0.60450485     0.36840
C710        C  0.10189658  0.43163708  0.98209587     0.36750
N711        N  0.02326564  0.42353842  0.62982323    -0.43500
N712        N  0.11429045  0.43339096  0.95660003    -0.43500
C713        C  0.94676339  0.10013800  0.51058032     0.00090
C714        C  0.95042177  0.07430382  0.98397313    -0.11790
C715        C  0.97200765  0.04453870  0.98560446     0.02330
C716        C  0.99007188  0.04025748  0.01432877     0.00000
C717        C  0.98477368  0.06406672  0.54177357    -0.11720
C718        C  0.96333632  0.09364076  0.54029771     0.02210
H719        H  0.93763899  0.07861830  0.96117056     0.15190
H720        H  0.99821570  0.06032956  0.56417519     0.15190
C721        C  0.95912640  0.11683931  0.56973198     0.36840
C722        C  0.97630451  0.02017495  0.95696388     0.36750
N723        N  0.95600818  0.13537877  0.59339154    -0.43500
N724        N  0.97962526  0.00067915  0.93393561    -0.43500
C725        C  0.94037153  0.40693167  0.53300716     0.00090
C726        C  0.95671338  0.42177826  0.50578579    -0.11790
C727        C  0.98087060  0.44681495  0.51078382     0.02330
C728        C  0.98864022  0.45777443  0.54352350     0.00000
C729        C  0.97051802  0.44558544  0.57043781    -0.11720
C730        C  0.94678986  0.41979653  0.56547915     0.02210
H731        H  0.95176985  0.41193224  0.48075746     0.15190
H732        H  0.97580439  0.45467963  0.59552863     0.15190
C733        C  0.92985370  0.40604402  0.59408118     0.36840
C734        C  0.99778372  0.45976571  0.48191579     0.36750
N735        N  0.91622851  0.39506352  0.61699538    -0.43500
N736        N  0.01101351  0.46973449  0.95838696    -0.43500
C737        C  0.09221768  0.90041343  0.53506950     0.00090
C738        C  0.07113489  0.90530144  0.56077026    -0.11790
C739        C  0.04726216  0.93143481  0.55723079     0.02330
C740        C  0.04415390  0.95333139  0.52733174     0.00000
C741        C  0.06629254  0.94979571  0.00224427    -0.11720
C742        C  0.09023651  0.92344630  0.50592745     0.02210
H743        H  0.07280229  0.88764177  0.58328465     0.15190
H744        H  0.06410226  0.96627532  0.97917310     0.15190
C745        C  0.11194941  0.91953569  0.97919777     0.36840
C746        C  0.02630245  0.93490308  0.58477657     0.36750
N747        N  0.12947894  0.91640866  0.95786756    -0.43500
N748        N  0.00981825  0.93741790  0.60717421    -0.43500
C749        C  0.09053356  0.59566357  0.56879546     0.00090
C750        C  0.07938050  0.58810749  0.53678826    -0.11790
C751        C  0.05731100  0.56022529  0.53190830     0.02330
C752        C  0.04603454  0.53888877  0.55944793     0.00000
C753        C  0.05904572  0.54390697  0.59101898    -0.11720
C754        C  0.08105907  0.57222378  0.59598896     0.02210
H755        H  0.08705412  0.60526586  0.51557387     0.15190
H756        H  0.05079103  0.52722514  0.61218595     0.15190
C757        C  0.09137426  0.57875618  0.62960888     0.36840
C758        C  0.04595228  0.55540608  0.49847263     0.36750
N759        N  0.09950708  0.58392758  0.65664077    -0.43500
N760        N  0.03735201  0.55192785  0.47140130    -0.43500
C761        C  0.93962809  0.90337916  0.53354095     0.00090
C762        C  0.95838909  0.89974433  0.00533134    -0.11790
C763        C  0.98213368  0.92524025  0.99948176     0.02330
C764        C  0.98721994  0.95570705  0.52173616     0.00000
C765        C  0.96650208  0.96211629  0.54773910    -0.11720
C766        C  0.94298790  0.93608204  0.55408190     0.02210
H767        H  0.95547804  0.87567706  0.98859825     0.15190
H768        H  0.97027222  0.98555360  0.56490073     0.15190
C769        C  0.92481886  0.94199335  0.58359887     0.36840
C770        C  0.00165790  0.91864427  0.97108941     0.36750
N771        N  0.91044732  0.94708105  0.60738524    -0.43500
N772        N  0.01723017  0.91329123  0.94829392    -0.43500
C773        C  0.98916494  0.53945920  0.55973885     0.00090
C774        C  0.97665590  0.55606323  0.53083753    -0.11790
C775        C  0.95442219  0.58469052  0.53305787     0.02330
C776        C  0.94365744  0.59620587  0.56471404     0.00000
C777        C  0.95395180  0.57671017  0.59345357    -0.11720
C778        C  0.97677421  0.54870349  0.59121398     0.02210
H779        H  0.98511416  0.54783094  0.50652097     0.15190
H780        H  0.94550237  0.58499527  0.61783715     0.15190
C781        C  0.98761658  0.53062689  0.62158271     0.36840
C782        C  0.94347111  0.60229350  0.50249814     0.36750
N783        N  0.99608580  0.51604946  0.64600520    -0.43500
N784        N  0.93481193  0.61647646  0.47798799    -0.43500
loop_ 
_geom_bond_atom_site_label_1 
_geom_bond_atom_site_label_2 
_geom_bond_distance 
_geom_bond_site_symmetry_2 
_ccdc_geom_bond_type 
N1            N2   1.325       .  A
N1            C5   1.344       .  A
N1           Cu9   2.077       .  S
N2            C3   1.347       .  A
N2           Cu8   2.084       .  S
C3            C4   1.383       .  A
C3            H6   1.081       .  S
C4            C5   1.382       .  A
C4          C188   1.472       .  S
C5            H7   1.081       .  S
Cu8          N11   2.082       .  S
Cu9          N19   2.075       .  S
Cu10         N12   2.055       .  S
Cu10         N18   2.055       .  S
N11          N12   1.321       .  A
N11          C15   1.348       .  A
N12          C13   1.340       .  A
C13          C14   1.380       .  A
C13          H16   1.082       .  S
C14          C15   1.387       .  A
C14         C384   1.478       .  S
C15          H17   1.081       .  S
N18          N19   1.319       .  A
N18          C22   1.339       .  A
N19          C20   1.348       .  A
C20          C21   1.391       .  A
C20          H23   1.080       .  S
C21          C22   1.384       .  A
C21         C369   1.487       .  S
C22          H24   1.082       .  S
N25          N26   1.324       .  A
N25          C29   1.345       .  A
N25         Cu33   2.075       .  S
N26          C27   1.345       .  A
N26         Cu32   2.078       .  S
C27          C28   1.383       .  A
C27          H30   1.081       .  S
C28          C29   1.382       .  A
C28         C162   1.470       .  S
C29          H31   1.081       .  S
Cu32         N35   2.077       .  S
Cu33         N43   2.074       .  S
Cu34         N36   2.062       .  S
Cu34         N42   2.062       .  S
N35          N36   1.321       .  A
N35          C39   1.349       .  A
N36          C37   1.339       .  A
C37          C38   1.382       .  A
C37          H40   1.082       .  S
C38          C39   1.388       .  A
C38         C357   1.482       .  S
C39          H41   1.081       .  S
N42          N43   1.321       .  A
N42          C46   1.342       .  A
N43          C44   1.347       .  A
C44          C45   1.384       .  A
C44          H47   1.081       .  S
C45          C46   1.380       .  A
C45         C345   1.470       .  S
C46          H48   1.083       .  S
N49         N442   1.321   1_554  A
N49          C53   1.339       .  A
N49         Cu57   2.057       .  S
N50         N441   1.321       .  A
N50          C51   1.349       .  A
N50         Cu56   2.084       .  S
C51         C444   1.389       .  A
C51          H54   1.081       .  S
C52          C53   1.383       .  A
C52         C443   1.389   1_554  A
C52         C321   1.485       .  S
C53          H55   1.082       .  S
Cu56         N59   2.085       .  S
Cu57         N67   2.056       .  S
Cu58         N60   2.080       .  S
Cu58        N458   2.078       .  S
N59          N60   1.324       .  A
N59          C63   1.347       .  A
N60          C61   1.345       .  A
C61          C62   1.383       .  A
C61          H64   1.081       .  S
C62          C63   1.384       .  A
C62         C138   1.474       .  S
C63          H65   1.081       .  S
N66          N67   1.320       .  A
N66          C70   1.348       .  A
N66        Cu450   2.078   1_554  S
N67          C68   1.341       .  A
C68          C69   1.379       .  A
C68          H71   1.083       .  S
C69          C70   1.385       .  A
C69         C333   1.472       .  S
C70          H72   1.081   1_554  S
N73         N466   1.322   1_554  A
N73          C77   1.342       .  A
N73         Cu81   2.065       .  S
N74         N465   1.322       .  A
N74          C75   1.347       .  A
N74         Cu80   2.077       .  S
C75         C468   1.384       .  A
C75          H78   1.081       .  S
C76          C77   1.380       .  A
C76         C467   1.384   1_554  A
C76         C297   1.474       .  S
C77          H79   1.083       .  S
Cu80         N83   2.078       .  S
Cu81         N91   2.065       .  S
Cu82         N84   2.076       .  S
Cu82        N482   2.075       .  S
N83          N84   1.323       .  A
N83          C87   1.345       .  A
N84          C85   1.345       .  A
C85          C86   1.383       .  A
C85          H88   1.081       .  S
C86          C87   1.383       .  A
C86         C114   1.472       .  S
C87          H89   1.081       .  S
N90          N91   1.321       .  A
N90          C94   1.346       .  A
N90        Cu474   2.075   1_554  S
N91          C92   1.342       .  A
C92          C93   1.384       .  A
C92          H95   1.083       .  S
C93          C94   1.387       .  A
C93         C312   1.484       .  S
C94          H96   1.080       .  S
C97          C98   1.358   1_565  D
C97         C740   1.494       .  S
C97         C764   1.491   1_455  S
C98         C300   1.486       .  S
C98         C324   1.485   1_455  S
C99         C100   1.354       .  D
C99         C360   1.487       .  S
C99         C381   1.487   1_455  S
C100        C309   1.489       .  S
C100        C336   1.489   1_455  S
N101        N102   1.320       .  A
N101        C105   1.339       .  A
N101       Cu109   2.055       .  S
N102        C103   1.349       .  A
N102       Cu108   2.083       .  S
C103        C104   1.391       .  A
C103        H106   1.081       .  S
C104        C105   1.383       .  A
C104        C285   1.485       .  S
C105        H107   1.082       .  S
Cu108       N111   2.085       .  S
Cu109       N119   2.055       .  S
Cu110       N112   2.080       .  S
Cu110       N118   2.077       .  S
N111        N112   1.325       .  A
N111        C115   1.346       .  A
N112        C113   1.345       .  A
C113        C114   1.382       .  A
C113        H116   1.081       .  S
C114        C115   1.383       .  A
C115        H117   1.081       .  S
N118        N119   1.319       .  A
N118        C122   1.350       .  A
N119        C120   1.338       .  A
C120        C121   1.383       .  A
C120        H123   1.083       .  S
C121        C122   1.390       .  A
C121        C273   1.485       .  S
C122        H124   1.080       .  S
N125        N126   1.322       .  A
N125        C129   1.344       .  A
N125       Cu133   2.070       .  S
N126        C127   1.346       .  A
N126       Cu132   2.077       .  S
C127        C128   1.385       .  A
C127        H130   1.082       .  S
C128        C129   1.382       .  A
C128        C261   1.476       .  S
C129        H131   1.082       .  S
Cu132       N135   2.078       .  S
Cu133       N143   2.070       .  S
Cu134       N136   2.083       .  S
Cu134       N142   2.082       .  S
N135        N136   1.323       .  A
N135        C139   1.345       .  A
N136        C137   1.347       .  A
C137        C138   1.385       .  A
C137        H140   1.081       .  S
C138        C139   1.383       .  A
C139        H141   1.081       .  S
N142        N143   1.323       .  A
N142        C146   1.348       .  A
N143        C144   1.343       .  A
C144        C145   1.379       .  A
C144        H147   1.082       .  S
C145        C146   1.383       .  A
C145        C249   1.473       .  S
C146        H148   1.081       .  S
N149        N150   1.320       .  A
N149        C153   1.338       .  A
N149       Cu157   2.064       .  S
N150        C151   1.350       .  A
N150       Cu156   2.078       .  S
C151        C152   1.389       .  A
C151        H154   1.082       .  S
C152        C153   1.385       .  A
C152        C228   1.489       .  S
C153        H155   1.081       .  S
Cu156       N159   2.081       .  S
Cu157       N167   2.065       .  S
Cu158       N160   2.075       .  S
Cu158       N166   2.073       .  S
N159        N160   1.324       .  A
N159        C163   1.345       .  A
N160        C161   1.344       .  A
C161        C162   1.381       .  A
C161        H164   1.081       .  S
C162        C163   1.383       .  A
C163        H165   1.081       .  S
N166        N167   1.319       .  A
N166        C170   1.348       .  A
N167        C168   1.341       .  A
C168        C169   1.386       .  A
C168        H171   1.082       .  S
C169        C170   1.389       .  A
C169        C237   1.488       .  S
C170        H172   1.080       .  S
C173        C174   1.361       .  D
C173        C213   1.493       .  S
C173        C240   1.491       .  S
C174        C264   1.492       .  S
C174        C288   1.491       .  S
N175        N176   1.322       .  A
N175        C179   1.344       .  A
N175       Cu183   2.077       .  S
N176        C177   1.345       .  A
N176       Cu182   2.069       .  S
C177        C178   1.384       .  A
C177        H180   1.081       .  S
C178        C179   1.385       .  A
C178        C201   1.480       .  S
C179        H181   1.083       .  S
Cu182       N185   2.070       .  S
Cu183       N193   2.077       .  S
Cu184       N186   2.078       .  S
Cu184       N192   2.078       .  S
N185        N186   1.322       .  A
N185        C189   1.344       .  A
N186        C187   1.347       .  A
C187        C188   1.384       .  A
C187        H190   1.081       .  S
C188        C189   1.382       .  A
C189        H191   1.081       .  S
N192        N193   1.323       .  A
N192        C196   1.347       .  A
N193        C194   1.345       .  A
C194        C195   1.381       .  A
C194        H197   1.083       .  S
C195        C196   1.382       .  A
C195        C216   1.473       .  S
C196        H198   1.081       .  S
C199        C200   1.374       .  D
C199        C252   1.503       .  S
C199        C276   1.487       .  S
C200        C204   1.497   1_545  S
C200        C225   1.534   1_545  S
C201        C202   1.403       .  A
C201        C206   1.413       .  A
C202        C203   1.401       .  A
C202        H207   1.085       .  S
C203        C204   1.415       .  A
C203        C210   1.444       .  S
C204        C205   1.401       .  A
C205        C206   1.399       .  A
C205        H208   1.084       .  S
C206        C209   1.443       .  S
C209        N211   1.157       .  T
C210        N212   1.157       .  T
C213        C214   1.406       .  A
C213        C218   1.412       .  A
C214        C215   1.398       .  A
C214        H219   1.085       .  S
C215        C216   1.407       .  A
C215        C222   1.444       .  S
C216        C217   1.402       .  A
C217        C218   1.403       .  A
C217        H220   1.085       .  S
C218        C221   1.441       .  S
C221        N223   1.157       .  T
C222        N224   1.157       .  T
C225        C226   1.418       .  A
C225        C230   1.428       .  A
C226        C227   1.388       .  A
C226        H231   1.075       .  S
C227        C228   1.405       .  A
C227        C234   1.447       .  S
C228        C229   1.404       .  A
C229        C230   1.413       .  A
C229        H232   1.083       .  S
C230        C233   1.439   1_565  S
C233        N235   1.157       .  T
C234        N236   1.157       .  T
C237        C238   1.404       .  A
C237        C242   1.416       .  A
C238        C239   1.396       .  A
C238        H243   1.084       .  S
C239        C240   1.409       .  A
C239        C246   1.443       .  S
C240        C241   1.404       .  A
C241        C242   1.404       .  A
C241        H244   1.084       .  S
C242        C245   1.443       .  S
C245        N247   1.157       .  T
C246        N248   1.157       .  T
C249        C250   1.401       .  A
C249        C254   1.407       .  A
C250        C251   1.403       .  A
C250        H255   1.085       .  S
C251        C252   1.415       .  A
C251        C258   1.442       .  S
C252        C253   1.408       .  A
C253        C254   1.398       .  A
C253        H256   1.084       .  S
C254        C257   1.444       .  S
C257        N259   1.157       .  T
C258        N260   1.157       .  T
C261        C262   1.400       .  A
C261        C266   1.410       .  A
C262        C263   1.399       .  A
C262        H267   1.085       .  S
C263        C264   1.413       .  A
C263        C270   1.442       .  S
C264        C265   1.405       .  A
C265        C266   1.403       .  A
C265        H268   1.084       .  S
C266        C269   1.443       .  S
C269        N271   1.157       .  T
C270        N272   1.157       .  T
C273        C274   1.401       .  A
C273        C278   1.415       .  A
C274        C275   1.392       .  A
C274        H279   1.084       .  S
C275        C276   1.412       .  A
C275        C282   1.444       .  S
C276        C277   1.405       .  A
C277        C278   1.407       .  A
C277        H280   1.084       .  S
C278        C281   1.442       .  S
C281        N283   1.157       .  T
C282        N284   1.157       .  T
C285        C286   1.406       .  A
C285        C290   1.414       .  A
C286        C287   1.405       .  A
C286        H291   1.084       .  S
C287        C288   1.411       .  A
C287        C294   1.441       .  S
C288        C289   1.401       .  A
C289        C290   1.395       .  A
C289        H292   1.085       .  S
C290        C293   1.444       .  S
C293        N295   1.157       .  T
C294        N296   1.157       .  T
C297        C298   1.403       .  A
C297        C694   1.410   1_554  A
C298        C299   1.400       .  A
C298        H303   1.085       .  S
C299        C692   1.410       .  A
C299        C306   1.443       .  S
C300        C301   1.403       .  A
C300        C691   1.410       .  A
C301        C302   1.399       .  A
C301        H304   1.085       .  S
C302        C689   1.410       .  A
C302        C305   1.444       .  S
C305        N307   1.157       .  T
C306        N308   1.157       .  T
C309        C310   1.401       .  A
C309        C314   1.410       .  A
C310        C311   1.400       .  A
C310        H315   1.081       .  S
C311        C312   1.415       .  A
C311        C710   1.443   1_554  S
C312        C313   1.405       .  A
C313        C314   1.399       .  A
C313        H316   1.085       .  S
C314        C317   1.443       .  S
C317        N319   1.157       .  T
C318        C703   1.443       .  S
C318        N320   1.157       .  T
C321        C326   1.415       .  A
C321        C714   1.407   1_554  A
C322        C323   1.404       .  A
C322        C713   1.407       .  A
C322        H327   1.084       .  S
C323        C324   1.409       .  A
C323        C330   1.442       .  S
C324        C717   1.399       .  A
C325        C326   1.395       .  A
C325        C716   1.399       .  A
C325        H328   1.084       .  S
C326        C329   1.444       .  S
C329        N331   1.157       .  T
C330        N332   1.157       .  T
C333        C334   1.400       .  A
C333        C338   1.409       .  A
C334        C335   1.399       .  A
C334        H339   1.085   1_554  S
C335        C336   1.412       .  A
C335        C342   1.443   1_554  S
C336        C337   1.403       .  A
C337        C338   1.400       .  A
C337        H340   1.082       .  S
C338        C341   1.443       .  S
C341        N343   1.157       .  T
C342        N736   1.157   1_655  T
N344        C734   1.157   1_455  T
C345        C346   1.398       .  A
C345        C350   1.407       .  A
C346        C347   1.396       .  A
C346        H351   1.085       .  S
C347        C348   1.415       .  A
C347        C354   1.444       .  S
C348        C741   1.407       .  A
C348        C489   1.494       .  S
C349        C740   1.407       .  A
C349        C742   1.403       .  A
C349        H352   1.084       .  S
C350        C741   1.403       .  A
C350        C745   1.443   1_554  S
C353        C742   1.443       .  S
C353        N355   1.157       .  T
C354        N356   1.157       .  T
C357        C358   1.402       .  A
C357        C362   1.413       .  A
C358        C359   1.395       .  A
C358        H363   1.085       .  S
C359        C360   1.411       .  A
C359        C366   1.443   1_554  S
C360        C361   1.403       .  A
C361        C362   1.404       .  A
C361        H364   1.083       .  S
C362        C365   1.443       .  S
C365        N367   1.157       .  T
C366        N368   1.157       .  T
C369        C374   1.416       .  A
C369        C762   1.405       .  A
C370        C371   1.395       .  A
C370        C761   1.405       .  A
C370        H375   1.084       .  S
C371        C764   1.409       .  A
C371        C378   1.445   1_655  S
C372        C373   1.403       .  A
C372        C763   1.409   1_554  A
C372        C489   1.491   1_655  S
C373        C374   1.403       .  A
C373        H376   1.084       .  S
C374        C377   1.442       .  S
C377        N379   1.157       .  T
C378        N380   1.157       .  T
C381        C382   1.400       .  A
C381        C386   1.411       .  A
C382        C383   1.398       .  A
C382        H387   1.082       .  S
C383        C384   1.412       .  A
C383        C390   1.444       .  S
C384        C385   1.403       .  A
C385        C386   1.401       .  A
C385        H388   1.084       .  S
C386        C389   1.443       .  S
C389        N391   1.157       .  T
C390        N392   1.157   1_554  T
N393        N394   1.325       .  A
N393        C397   1.344       .  A
N393       Cu401   2.077       .  S
N394        C395   1.347       .  A
N394       Cu400   2.084       .  S
C395        C396   1.383       .  A
C395        H398   1.081       .  S
C396        C397   1.382       .  A
C396        C580   1.472       .  S
C397        H399   1.081       .  S
Cu400       N403   2.082       .  S
Cu401       N411   2.075       .  S
Cu402       N404   2.055       .  S
Cu402       N410   2.055       .  S
N403        N404   1.321       .  A
N403        C407   1.348       .  A
N404        C405   1.340       .  A
C405        C406   1.380       .  A
C405        H408   1.082       .  S
C406        C407   1.387       .  A
C406        C776   1.478       .  S
C407        H409   1.081       .  S
N410        N411   1.319       .  A
N410        C414   1.339       .  A
N411        C412   1.348       .  A
C412        C413   1.391       .  A
C412        H415   1.080       .  S
C413        C414   1.384       .  A
C413        C761   1.487       .  S
C414        H416   1.082       .  S
N417        N418   1.324       .  A
N417        C421   1.345       .  A
N417       Cu425   2.075       .  S
N418        C419   1.345       .  A
N418       Cu424   2.078       .  S
C419        C420   1.383       .  A
C419        H422   1.081       .  S
C420        C421   1.382       .  A
C420        C554   1.470       .  S
C421        H423   1.081       .  S
Cu424       N427   2.077       .  S
Cu425       N435   2.074       .  S
Cu426       N428   2.062       .  S
Cu426       N434   2.062       .  S
N427        N428   1.321       .  A
N427        C431   1.349       .  A
N428        C429   1.339       .  A
C429        C430   1.382       .  A
C429        H432   1.082       .  S
C430        C431   1.388       .  A
C430        C749   1.482       .  S
C431        H433   1.081       .  S
N434        N435   1.321       .  A
N434        C438   1.342       .  A
N435        C436   1.347       .  A
C436        C437   1.384       .  A
C436        H439   1.081       .  S
C437        C438   1.380       .  A
C437        C737   1.470       .  S
C438        H440   1.083       .  S
N441        C445   1.339       .  A
N441       Cu449   2.057       .  S
N442        C443   1.349       .  A
N442       Cu448   2.084       .  S
C443        H446   1.081       .  S
C444        C445   1.383       .  A
C444        C713   1.485       .  S
C445        H447   1.082       .  S
Cu448       N451   2.085       .  S
Cu449       N459   2.056       .  S
Cu450       N452   2.080       .  S
N451        N452   1.324       .  A
N451        C455   1.347       .  A
N452        C453   1.345       .  A
C453        C454   1.383       .  A
C453        H456   1.081       .  S
C454        C455   1.384       .  A
C454        C530   1.474       .  S
C455        H457   1.081       .  S
N458        N459   1.320       .  A
N458        C462   1.348       .  A
N459        C460   1.341       .  A
C460        C461   1.379       .  A
C460        H463   1.083       .  S
C461        C462   1.385       .  A
C461        C725   1.472       .  S
C462        H464   1.081       .  S
N465        C469   1.342       .  A
N465       Cu473   2.065       .  S
N466        C467   1.347       .  A
N466       Cu472   2.077       .  S
C467        H470   1.081       .  S
C468        C469   1.380       .  A
C468        C689   1.474       .  S
C469        H471   1.083       .  S
Cu472       N475   2.078       .  S
Cu473       N483   2.065       .  S
Cu474       N476   2.076       .  S
N475        N476   1.323       .  A
N475        C479   1.345       .  A
N476        C477   1.345       .  A
C477        C478   1.383       .  A
C477        H480   1.081       .  S
C478        C479   1.383       .  A
C478        C506   1.472       .  S
C479        H481   1.081       .  S
N482        N483   1.321       .  A
N482        C486   1.346       .  A
N483        C484   1.342       .  A
C484        C485   1.384       .  A
C484        H487   1.083       .  S
C485        C486   1.387       .  A
C485        C704   1.484       .  S
C486        H488   1.080       .  S
C489        C490   1.358   1_565  D
C490        C692   1.486       .  S
C490        C716   1.485   1_455  S
C491        C492   1.354       .  D
C491        C752   1.487       .  S
C491        C773   1.487   1_455  S
C492        C701   1.489       .  S
C492        C728   1.489   1_455  S
N493        N494   1.320       .  A
N493        C497   1.339       .  A
N493       Cu501   2.055       .  S
N494        C495   1.349       .  A
N494       Cu500   2.083       .  S
C495        C496   1.391       .  A
C495        H498   1.081       .  S
C496        C497   1.383       .  A
C496        C677   1.485       .  S
C497        H499   1.082       .  S
Cu500       N503   2.085       .  S
Cu501       N511   2.055       .  S
Cu502       N504   2.080       .  S
Cu502       N510   2.077       .  S
N503        N504   1.325       .  A
N503        C507   1.346       .  A
N504        C505   1.345       .  A
C505        C506   1.382       .  A
C505        H508   1.081       .  S
C506        C507   1.383       .  A
C507        H509   1.081       .  S
N510        N511   1.319       .  A
N510        C514   1.350       .  A
N511        C512   1.338       .  A
C512        C513   1.383       .  A
C512        H515   1.083       .  S
C513        C514   1.390       .  A
C513        C665   1.485       .  S
C514        H516   1.080       .  S
N517        N518   1.322       .  A
N517        C521   1.344       .  A
N517       Cu525   2.070       .  S
N518        C519   1.346       .  A
N518       Cu524   2.077       .  S
C519        C520   1.385       .  A
C519        H522   1.082       .  S
C520        C521   1.382       .  A
C520        C653   1.476       .  S
C521        H523   1.082       .  S
Cu524       N527   2.078       .  S
Cu525       N535   2.070       .  S
Cu526       N528   2.083       .  S
Cu526       N534   2.082       .  S
N527        N528   1.323       .  A
N527        C531   1.345       .  A
N528        C529   1.347       .  A
C529        C530   1.385       .  A
C529        H532   1.081       .  S
C530        C531   1.383       .  A
C531        H533   1.081       .  S
N534        N535   1.323       .  A
N534        C538   1.348       .  A
N535        C536   1.343       .  A
C536        C537   1.379       .  A
C536        H539   1.082       .  S
C537        C538   1.383       .  A
C537        C641   1.473       .  S
C538        H540   1.081       .  S
N541        N542   1.320       .  A
N541        C545   1.338       .  A
N541       Cu549   2.064       .  S
N542        C543   1.350       .  A
N542       Cu548   2.078       .  S
C543        C544   1.389       .  A
C543        H546   1.082       .  S
C544        C545   1.385       .  A
C544        C620   1.489       .  S
C545        H547   1.081       .  S
Cu548       N551   2.081       .  S
Cu549       N559   2.065       .  S
Cu550       N552   2.075       .  S
Cu550       N558   2.073       .  S
N551        N552   1.324       .  A
N551        C555   1.345       .  A
N552        C553   1.344       .  A
C553        C554   1.381       .  A
C553        H556   1.081       .  S
C554        C555   1.383       .  A
C555        H557   1.081       .  S
N558        N559   1.319       .  A
N558        C562   1.348       .  A
N559        C560   1.341       .  A
C560        C561   1.386       .  A
C560        H563   1.082       .  S
C561        C562   1.389       .  A
C561        C629   1.488       .  S
C562        H564   1.080       .  S
C565        C566   1.361       .  D
C565        C605   1.493       .  S
C565        C632   1.491       .  S
C566        C656   1.492       .  S
C566        C680   1.491       .  S
N567        N568   1.322       .  A
N567        C571   1.344       .  A
N567       Cu575   2.077       .  S
N568        C569   1.345       .  A
N568       Cu574   2.069       .  S
C569        C570   1.384       .  A
C569        H572   1.081       .  S
C570        C571   1.385       .  A
C570        C593   1.480       .  S
C571        H573   1.083       .  S
Cu574       N577   2.070       .  S
Cu575       N585   2.077       .  S
Cu576       N578   2.078       .  S
Cu576       N584   2.078       .  S
N577        N578   1.322       .  A
N577        C581   1.344       .  A
N578        C579   1.347       .  A
C579        C580   1.384       .  A
C579        H582   1.081       .  S
C580        C581   1.382       .  A
C581        H583   1.081       .  S
N584        N585   1.323       .  A
N584        C588   1.347       .  A
N585        C586   1.345       .  A
C586        C587   1.381       .  A
C586        H589   1.083       .  S
C587        C588   1.382       .  A
C587        C608   1.473       .  S
C588        H590   1.081       .  S
C591        C592   1.374       .  D
C591        C644   1.503       .  S
C591        C668   1.487       .  S
C592        C596   1.497   1_545  S
C592        C617   1.534   1_545  S
C593        C594   1.403       .  A
C593        C598   1.413       .  A
C594        C595   1.401       .  A
C594        H599   1.085       .  S
C595        C596   1.415       .  A
C595        C602   1.444       .  S
C596        C597   1.401       .  A
C597        C598   1.399       .  A
C597        H600   1.084       .  S
C598        C601   1.443       .  S
C601        N603   1.157       .  T
C602        N604   1.157       .  T
C605        C606   1.406       .  A
C605        C610   1.412       .  A
C606        C607   1.398       .  A
C606        H611   1.085       .  S
C607        C608   1.407       .  A
C607        C614   1.444       .  S
C608        C609   1.402       .  A
C609        C610   1.403       .  A
C609        H612   1.085       .  S
C610        C613   1.441       .  S
C613        N615   1.157       .  T
C614        N616   1.157       .  T
C617        C618   1.418       .  A
C617        C622   1.428       .  A
C618        C619   1.388       .  A
C618        H623   1.075       .  S
C619        C620   1.405       .  A
C619        C626   1.447       .  S
C620        C621   1.404       .  A
C621        C622   1.413       .  A
C621        H624   1.083       .  S
C622        C625   1.439   1_565  S
C625        N627   1.157       .  T
C626        N628   1.157       .  T
C629        C630   1.404       .  A
C629        C634   1.416       .  A
C630        C631   1.396       .  A
C630        H635   1.084       .  S
C631        C632   1.409       .  A
C631        C638   1.443       .  S
C632        C633   1.404       .  A
C633        C634   1.404       .  A
C633        H636   1.084       .  S
C634        C637   1.443       .  S
C637        N639   1.157       .  T
C638        N640   1.157       .  T
C641        C642   1.401       .  A
C641        C646   1.407       .  A
C642        C643   1.403       .  A
C642        H647   1.085       .  S
C643        C644   1.415       .  A
C643        C650   1.442       .  S
C644        C645   1.408       .  A
C645        C646   1.398       .  A
C645        H648   1.084       .  S
C646        C649   1.444       .  S
C649        N651   1.157       .  T
C650        N652   1.157       .  T
C653        C654   1.400       .  A
C653        C658   1.410       .  A
C654        C655   1.399       .  A
C654        H659   1.085       .  S
C655        C656   1.413       .  A
C655        C662   1.442       .  S
C656        C657   1.405       .  A
C657        C658   1.403       .  A
C657        H660   1.084       .  S
C658        C661   1.443       .  S
C661        N663   1.157       .  T
C662        N664   1.157       .  T
C665        C666   1.401       .  A
C665        C670   1.415       .  A
C666        C667   1.392       .  A
C666        H671   1.084       .  S
C667        C668   1.412       .  A
C667        C674   1.444       .  S
C668        C669   1.405       .  A
C669        C670   1.407       .  A
C669        H672   1.084       .  S
C670        C673   1.442       .  S
C673        N675   1.157       .  T
C674        N676   1.157       .  T
C677        C678   1.406       .  A
C677        C682   1.414       .  A
C678        C679   1.405       .  A
C678        H683   1.084       .  S
C679        C680   1.411       .  A
C679        C686   1.441       .  S
C680        C681   1.401       .  A
C681        C682   1.395       .  A
C681        H684   1.085       .  S
C682        C685   1.444       .  S
C685        N687   1.157       .  T
C686        N688   1.157       .  T
C689        C690   1.403       .  A
C690        C691   1.400       .  A
C690        H695   1.085       .  S
C691        C698   1.443       .  S
C692        C693   1.403   1_554  A
C693        C694   1.399       .  A
C693        H696   1.085       .  S
C694        C697   1.444       .  S
C697        N699   1.157       .  T
C698        N700   1.157       .  T
C701        C702   1.401       .  A
C701        C706   1.410       .  A
C702        C703   1.400       .  A
C702        H707   1.081       .  S
C703        C704   1.415       .  A
C704        C705   1.405       .  A
C705        C706   1.399       .  A
C705        H708   1.085       .  S
C706        C709   1.443       .  S
C709        N711   1.157       .  T
C710        N712   1.157       .  T
C713        C718   1.415       .  A
C714        C715   1.404       .  A
C714        H719   1.084       .  S
C715        C716   1.409   1_556  A
C715        C722   1.442       .  S
C717        C718   1.395       .  A
C717        H720   1.084       .  S
C718        C721   1.444       .  S
C721        N723   1.157       .  T
C722        N724   1.157       .  T
C725        C726   1.400       .  A
C725        C730   1.409       .  A
C726        C727   1.399       .  A
C726        H731   1.085       .  S
C727        C728   1.412       .  A
C727        C734   1.443       .  S
C728        C729   1.403       .  A
C729        C730   1.400       .  A
C729        H732   1.082       .  S
C730        C733   1.443       .  S
C733        N735   1.157       .  T
C737        C738   1.398       .  A
C737        C742   1.407       .  A
C738        C739   1.396       .  A
C738        H743   1.085       .  S
C739        C740   1.415       .  A
C739        C746   1.444       .  S
C741        H744   1.084   1_554  S
C745        N747   1.157       .  T
C746        N748   1.157       .  T
C749        C750   1.402       .  A
C749        C754   1.413       .  A
C750        C751   1.395       .  A
C750        H755   1.085       .  S
C751        C752   1.411       .  A
C751        C758   1.443       .  S
C752        C753   1.403       .  A
C753        C754   1.404       .  A
C753        H756   1.083       .  S
C754        C757   1.443       .  S
C757        N759   1.157       .  T
C758        N760   1.157       .  T
C761        C766   1.416       .  A
C762        C763   1.395   1_554  A
C762        H767   1.084   1_554  S
C763        C770   1.445   1_655  S
C764        C765   1.403       .  A
C765        C766   1.403       .  A
C765        H768   1.084       .  S
C766        C769   1.442       .  S
C769        N771   1.157       .  T
C770        N772   1.157       .  T
C773        C774   1.400       .  A
C773        C778   1.411       .  A
C774        C775   1.398       .  A
C774        H779   1.082       .  S
C775        C776   1.412       .  A
C775        C782   1.444       .  S
C776        C777   1.403       .  A
C777        C778   1.401       .  A
C777        H780   1.084       .  S
C778        C781   1.443       .  S
C781        N783   1.157       .  T
C782        N784   1.157       .  T
