geometry optimzed in LAMMPS
_audit_creation_date              2020-11-30 
_audit_creation_method            'lammps2cif' 
_symmetry_space_group_name_H-M    'P1' 
_symmetry_Int_Tables_number       1 
_symmetry_cell_setting            triclinic 
loop_ 
_symmetry_equiv_pos_as_xyz 
  x,y,z 
_cell_length_a                    30.14561979 
_cell_length_b                    32.015766942500264 
_cell_length_c                    33.191159922607525 
_cell_angle_alpha                 90.53999982410576 
_cell_angle_beta                  90.91936241887113 
_cell_angle_gamma                 89.5538948868296 
loop_ 
_atom_site_label 
_atom_site_type_symbol 
_atom_site_fract_x 
_atom_site_fract_y 
_atom_site_fract_z 
_atom_site_charge 
N1          N  0.30087030  0.44325688  0.04113027    -0.06600
N2          N  0.33338499  0.42827259  0.06441859    -0.58700
N3          N  0.26593998  0.42217700  0.94803254    -0.06300
N4          N  0.27645936  0.38920962  0.92620836    -0.60900
N5          N  0.29944092  0.44843252  0.95033179    -0.05900
N6          N  0.33391605  0.43214108  0.93116415    -0.58700
N7          N  0.26767366  0.41662913  0.03978319    -0.05600
N8          N  0.27632160  0.38419002  0.06271929    -0.61200
C9          C  0.31695231  0.39182408  0.07840490     0.95600
C10         C  0.31876651  0.39538319  0.91571749     0.95300
N11         N  0.13157612  0.45228576  0.94845766    -0.06800
N12         N  0.11063428  0.45500914  0.91329278    -0.59300
N13         N  0.16384025  0.41639325  0.04033163    -0.04900
N14         N  0.16218101  0.39182474  0.07203067    -0.60600
N15         N  0.13206683  0.44450777  0.04162595    -0.06800
N16         N  0.10828724  0.43986946  0.07419901    -0.59600
N17         N  0.16303555  0.42376562  0.94684946    -0.04600
N18         N  0.16406953  0.40648594  0.91070137    -0.60700
Mn19       Mn  0.21466886  0.41899664  0.99382160     1.18400
C20         C  0.13092270  0.42584234  0.89011163     0.97600
C21         C  0.12692173  0.40657865  0.09278885     0.98300
N22         N  0.29729633  0.55219700  0.95650353    -0.06900
N23         N  0.32745329  0.56763170  0.93195953    -0.63200
N24         N  0.26693544  0.57164523  0.05111366    -0.05700
N25         N  0.27686484  0.60238317  0.07612838    -0.63800
N26         N  0.30047937  0.54522980  0.04808079    -0.06400
N27         N  0.33421792  0.55844890  0.07080671    -0.63400
N28         N  0.26405360  0.57900626  0.95990033    -0.05300
N29         N  0.27043133  0.61202825  0.93746986    -0.64100
Mn30       Mn  0.30103272  0.49735783  0.99877414     1.10700
C31         C  0.30957278  0.60472107  0.91959478     0.98900
C32         C  0.31868744  0.59394174  0.08856920     0.98900
N33         N  0.13180731  0.53987672  0.05013882    -0.06400
N34         N  0.10970779  0.53701770  0.08390780    -0.61700
N35         N  0.16077981  0.57674689  0.96005846    -0.05700
N36         N  0.16047019  0.59923445  0.92697869    -0.58500
N37         N  0.12981170  0.54818772  0.95784266    -0.07000
N38         N  0.10767312  0.55074131  0.92342670    -0.61300
N39         N  0.16337017  0.56780010  0.05375504    -0.06000
N40         N  0.16358322  0.58431180  0.09039401    -0.58500
Mn41       Mn  0.12954387  0.49627119  0.99939048     1.20200
Mn42       Mn  0.21324090  0.57477710  0.00645847     1.10100
Cl43       Cl  0.21528995  0.49691040  0.99943295    -0.86500
C44         C  0.12940777  0.56525501  0.10855113     0.95900
C45         C  0.12658266  0.58319223  0.90489525     0.95700
N46         N  0.86876238  0.44568918  0.03928607    -0.06600
N47         N  0.89082887  0.44298423  0.07376750    -0.58700
N48         N  0.83937732  0.42325810  0.94379037    -0.06300
N49         N  0.84168897  0.40328193  0.90896206    -0.60900
N50         N  0.86997770  0.45213190  0.94632303    -0.05900
N51         N  0.89374690  0.45238556  0.91325748    -0.58700
N52         N  0.83756191  0.41735749  0.03721296    -0.05600
N53         N  0.83758372  0.39486854  0.07031379    -0.61200
C54         C  0.87157079  0.41072115  0.09241746     0.95600
C55         C  0.87606777  0.42131562  0.89031129     0.95300
N56         N  0.70187231  0.44531347  0.94373510    -0.06800
N57         N  0.66863014  0.42918037  0.92219226    -0.59300
N58         N  0.73377632  0.41449267  0.03319160    -0.04900
N59         N  0.72431083  0.38050607  0.05323232    -0.60600
N60         N  0.70029657  0.44129209  0.03422442    -0.06800
N61         N  0.66703435  0.42504340  0.05443602    -0.59600
N62         N  0.73650910  0.42003218  0.94204896    -0.04600
N63         N  0.72812306  0.38774378  0.91853485    -0.60700
Mn64       Mn  0.78735857  0.41811594  0.98908824     1.18400
C65         C  0.68610193  0.39378100  0.90575184     0.97600
C66         C  0.68286879  0.38727011  0.06658187     0.98300
N67         N  0.86841391  0.54855284  0.95369360    -0.06900
N68         N  0.89288167  0.55370331  0.92153897    -0.63200
N69         N  0.83370637  0.56941161  0.04822216    -0.05700
N70         N  0.83156078  0.58592401  0.08473730    -0.63800
N71         N  0.86578110  0.54148295  0.04670236    -0.06400
N72         N  0.88598049  0.53852094  0.08208261    -0.63400
N73         N  0.83662446  0.57669262  0.95489290    -0.05300
N74         N  0.83887792  0.60171765  0.92368983    -0.64100
Mn75       Mn  0.87009295  0.49703516  0.99639053     1.10700
C76         C  0.87446699  0.58737151  0.90328144     0.98900
C77         C  0.86456774  0.56648658  0.10561186     0.98900
N78         N  0.69718933  0.54486516  0.03923564    -0.06400
N79         N  0.66221361  0.56031862  0.05834353    -0.61700
N80         N  0.73297862  0.57514813  0.95142864    -0.05700
N81         N  0.72404614  0.60731171  0.92824720    -0.58500
N82         N  0.70110012  0.54724149  0.94843711    -0.07000
N83         N  0.66947363  0.56067232  0.92351469    -0.61300
N84         N  0.73040372  0.57130609  0.04277630    -0.06000
N85         N  0.71926488  0.60370163  0.06517448    -0.58500
Mn86       Mn  0.69876946  0.49473630  0.99153298     1.20200
Mn87       Mn  0.78391052  0.57403476  0.99943321     1.10100
Cl88       Cl  0.78442585  0.49600720  0.99423604    -0.86500
C89         C  0.67706639  0.59653420  0.07534624     0.95900
C90         C  0.68462272  0.59799846  0.91078535     0.95700
N91         N  0.44151460  0.03257792  0.29184839    -0.06600
N92         N  0.42485167  0.05227542  0.32366842    -0.58700
N93         N  0.41544624  0.94005469  0.25615250    -0.06300
N94         N  0.38191315  0.91518916  0.26257860    -0.60900
N95         N  0.44477126  0.93811912  0.28599933    -0.05900
N96         N  0.43033432  0.91220811  0.31395612    -0.58700
N97         N  0.41263721  0.03420352  0.26156670    -0.05600
N98         N  0.37687838  0.05514896  0.27193339    -0.61200
C99         C  0.38487246  0.06697787  0.31029048     0.95600
C100        C  0.39142377  0.89738394  0.29820448     0.95300
N101        N  0.44444984  0.94328683  0.13474899    -0.06800
N102        N  0.44633262  0.90649792  0.11613680    -0.59300
N103        N  0.41161506  0.04093236  0.16728963    -0.04900
N104        N  0.38922208  0.07661753  0.16916712    -0.60600
N105        N  0.44103197  0.04226285  0.13856499    -0.06800
N106        N  0.43969794  0.07901305  0.12074354    -0.59600
N107        N  0.41511205  0.94234775  0.16356522    -0.04600
N108        N  0.39675942  0.90515626  0.16527064    -0.60700
Mn109      Mn  0.41295367  0.98970210  0.21150552     1.18400
C110        C  0.41583136  0.88326074  0.13520260     0.97600
C111        C  0.40671895  0.09986137  0.13956541     0.98300
N112        N  0.55541775  0.94137788  0.28442571    -0.06900
N113        N  0.57308286  0.91512966  0.31121081    -0.63200
N114        N  0.57776947  0.03943778  0.26057627    -0.05700
N115        N  0.61059284  0.06468169  0.27031520    -0.63800
N116        N  0.55038195  0.03580425  0.29096647    -0.06400
N117        N  0.56510180  0.05810741  0.32224152    -0.63400
N118        N  0.58265862  0.94520676  0.25398149    -0.05300
N119        N  0.61792155  0.92142518  0.25882205    -0.64100
Mn120      Mn  0.49816048  0.98666154  0.28969263     1.10700
C121        C  0.61170719  0.90224880  0.29404069     0.98900
C122        C  0.60214769  0.07672175  0.30845508     0.98900
N123        N  0.54251181  0.04501144  0.13682018    -0.06400
N124        N  0.54191689  0.08056816  0.11685135    -0.61700
N125        N  0.57840273  0.94766820  0.16047070    -0.05700
N126        N  0.60210714  0.91276875  0.15821300    -0.58500
N127        N  0.54662123  0.94738657  0.13292838    -0.07000
N128        N  0.54781494  0.91232299  0.11166542    -0.61300
N129        N  0.57276998  0.04604042  0.16574251    -0.06000
N130        N  0.59318505  0.08244615  0.16621745    -0.58500
Mn131      Mn  0.49344072  0.99440904  0.13393368     1.20200
Mn132      Mn  0.57880021  0.99492027  0.20975890     1.10100
Cl133      Cl  0.49591500  0.99143669  0.21159912    -0.86500
C134        C  0.57402549  0.10348041  0.13520660     0.95900
C135        C  0.58302524  0.89125531  0.12723878     0.95700
N136        N  0.45336124  0.04703389  0.85342405    -0.06600
N137        N  0.45492411  0.08405195  0.87149122    -0.58700
N138        N  0.42062134  0.94872525  0.82292373    -0.06300
N139        N  0.39938164  0.91273622  0.82054201    -0.60900
N140        N  0.44948881  0.94813399  0.85297549    -0.05900
N141        N  0.44833027  0.91175229  0.87153334    -0.58700
N142        N  0.42394257  0.04760911  0.82385216    -0.05600
N143        N  0.40499433  0.08478617  0.82136341    -0.61200
C144        C  0.42428265  0.10738775  0.85127066     0.95600
C145        C  0.41654399  0.88995724  0.85137484     0.95300
N146        N  0.44966098  0.95137409  0.69938837    -0.06800
N147        N  0.43190652  0.93127068  0.66782934    -0.59300
N148        N  0.42392260  0.04635812  0.73040081    -0.04900
N149        N  0.39012118  0.07060966  0.72033184    -0.60600
N150        N  0.45364147  0.04558239  0.70165942    -0.06800
N151        N  0.43959070  0.06883131  0.67109510    -0.59600
N152        N  0.42099946  0.95205609  0.72906919    -0.04600
N153        N  0.38462074  0.93215408  0.71874998    -0.60700
Mn154      Mn  0.42154899  0.99860461  0.77725161     1.18400
C155        C  0.39145002  0.91894314  0.68083162     0.97600
C156        C  0.40036929  0.08499346  0.68368566     0.98300
N157        N  0.55107136  0.94397878  0.85666802    -0.06900
N158        N  0.54868517  0.90757504  0.87505430    -0.63200
N159        N  0.58674384  0.04020335  0.83090348    -0.05700
N160        N  0.61061779  0.07462821  0.83177751    -0.63800
N161        N  0.55525266  0.04241229  0.85771720    -0.06400
N162        N  0.55675384  0.07873662  0.87704759    -0.63400
N163        N  0.58134602  0.94237070  0.82863205    -0.05300
N164        N  0.59997689  0.90499944  0.82726622    -0.64100
Mn165      Mn  0.50213644  0.99552979  0.85726103     1.10700
C166        C  0.57983220  0.88377159  0.85670725     0.98900
C167        C  0.59200780  0.09821083  0.86103828     0.98900
N168        N  0.56266511  0.04233584  0.70682635    -0.06400
N169        N  0.57865590  0.06895034  0.68028532    -0.61700
N170        N  0.58748526  0.94550717  0.73461920    -0.05700
N171        N  0.62358030  0.92428693  0.72551964    -0.58500
N172        N  0.56029252  0.94777288  0.70310228    -0.07000
N173        N  0.57869534  0.92860801  0.67180043    -0.61300
N174        N  0.59009361  0.03978379  0.73803487    -0.06000
N175        N  0.62403025  0.06466294  0.73388052    -0.58500
Mn176      Mn  0.50664131  0.99663374  0.70149644     1.20200
Mn177      Mn  0.58710262  0.99165279  0.78364117     1.10100
Cl178      Cl  0.50435071  0.99545554  0.77953622    -0.86500
C179        C  0.61687803  0.08299265  0.69805898     0.95900
C180        C  0.61775467  0.91329271  0.68662834     0.95700
N181        N  0.05172685  0.21079332  0.45314739    -0.06600
N182        N  0.06633985  0.17758387  0.43290141    -0.58700
N183        N  0.08461213  0.24692311  0.54177323    -0.06300
N184        N  0.12212502  0.23671217  0.55986388    -0.60900
N185        N  0.05593719  0.21599718  0.54330013    -0.05900
N186        N  0.07496833  0.18367931  0.56184721    -0.58700
N187        N  0.08104188  0.24111238  0.45105370    -0.05600
N188        N  0.11477416  0.22963162  0.42873031    -0.61200
C189        C  0.10519213  0.19037186  0.41698031     0.95600
C190        C  0.11602294  0.19761344  0.57266335     0.95300
N191        N  0.05710353  0.37539889  0.53751917    -0.06800
N192        N  0.06029815  0.39909409  0.57019971    -0.59300
N193        N  0.08262925  0.33816386  0.44491021    -0.09700
N194        N  0.10257734  0.33430021  0.40997518    -0.60600
N195        N  0.05408663  0.36931063  0.44399847    -0.06800
N196        N  0.05404870  0.38743183  0.40842921    -0.59600
N197        N  0.08569802  0.34433942  0.53924660    -0.04600
N198        N  0.10886492  0.34612882  0.57332026    -0.60700
Mn199      Mn  0.08402590  0.29323930  0.49427860     1.18400
C200        C  0.09318703  0.38084668  0.59205937     0.97600
C201        C  0.08496403  0.36564659  0.38783730     0.98300
N202        N  0.94490939  0.22188529  0.54582928    -0.06900
N203        N  0.92862784  0.19425584  0.57128232    -0.63200
N204        N  0.91434131  0.24760040  0.45310513    -0.05700
N205        N  0.87714188  0.23784819  0.43410397    -0.63800
N206        N  0.94138183  0.21497606  0.45489317    -0.06400
N207        N  0.92194590  0.18226650  0.43734392    -0.63400
N208        N  0.91787085  0.25443734  0.54363785    -0.05300
N209        N  0.88409988  0.25004977  0.56765695    -0.64100
Mn210      Mn  0.99835112  0.21459851  0.49945868     1.10700
C211        C  0.89108055  0.21298556  0.58537918     0.98900
C212        C  0.88218369  0.19737461  0.42391120     0.98900
N213        N  0.95243436  0.37347652  0.44504700    -0.06400
N214        N  0.95134603  0.39272677  0.41009846    -0.61700
N215        N  0.92340486  0.35135215  0.53970716    -0.05700
N216        N  0.90235988  0.35439712  0.57416723    -0.58500
N217        N  0.95528792  0.37898738  0.53842968    -0.07000
N218        N  0.95701027  0.40104357  0.57218875    -0.61300
N219        N  0.92139094  0.34504134  0.44612911    -0.06000
N220        N  0.89858431  0.34438930  0.41191758    -0.58500
Mn221      Mn  0.00477981  0.37598938  0.49121329     1.20200
Mn222      Mn  0.91856247  0.30019325  0.49543241     1.10100
Cl223      Cl  0.00135325  0.29523478  0.49514484    -0.86500
C224        C  0.91726999  0.37455608  0.38974907     0.95900
C225        C  0.92321254  0.38594014  0.59378552     0.95700
N226        N  0.04327464  0.60344087  0.45953207    -0.06600
N227        N  0.04252014  0.58086993  0.42597195    -0.58700
N228        N  0.07531043  0.63787870  0.55210798    -0.06300
N229        N  0.09764370  0.63782135  0.58657576    -0.60900
N230        N  0.04354228  0.61013982  0.55268466    -0.05900
N231        N  0.04345289  0.59080636  0.58752623    -0.58700
N232        N  0.07546727  0.63083621  0.45871931    -0.05600
N233        N  0.09722046  0.62742363  0.42473816    -0.61200
C234        C  0.07680092  0.59583932  0.40475203     0.95600
C235        C  0.07749601  0.60813152  0.60838346     0.95300
N236        N  0.05793711  0.76829597  0.54111790    -0.06800
N237        N  0.07609549  0.80060755  0.56019628    -0.59300
N238        N  0.08515556  0.72758878  0.45416288    -0.04900
N239        N  0.12151626  0.73230268  0.43348594    -0.60600
N240        N  0.05903160  0.76065296  0.45065203    -0.06800
N241        N  0.07856685  0.78886040  0.42780284    -0.59600
N242        N  0.08408874  0.73524596  0.54471290    -0.04600
N243        N  0.11951165  0.74428676  0.56667396    -0.60700
Mn244      Mn  0.08070410  0.68227844  0.50264247     1.18400
C245        C  0.11405444  0.78480945  0.57675357     0.97600
C246        C  0.11724594  0.77008127  0.41652812     0.98300
N247        N  0.94188754  0.61688347  0.55213388    -0.06900
N248        N  0.93985085  0.59863243  0.58753153    -0.63200
N249        N  0.91278772  0.64107191  0.45733590    -0.05700
N250        N  0.89046196  0.64022533  0.42288216    -0.63800
N251        N  0.94084128  0.60956655  0.45914213    -0.06400
N252        N  0.93816173  0.58650580  0.42603308    -0.63400
N253        N  0.91469215  0.64908021  0.55068111    -0.05300
N254        N  0.89377358  0.65361664  0.58501990    -0.64100
Mn255      Mn  0.99233772  0.60814356  0.50586328     1.10700
C256        C  0.90919683  0.62151711  0.60742573     0.98900
C257        C  0.90617063  0.60576336  0.40398774     0.98900
N258        N  0.94815398  0.76670480  0.44861506    -0.06400
N259        N  0.93333043  0.79492347  0.42229781    -0.61700
N260        N  0.91969462  0.74610903  0.54290297    -0.05700
N261        N  0.88749603  0.75842513  0.56668686    -0.58500
N262        N  0.94991745  0.77543206  0.54002632    -0.07000
N263        N  0.93786896  0.80874144  0.56140953    -0.61300
N264        N  0.91852213  0.73692658  0.45181601    -0.06000
N265        N  0.88461813  0.74333989  0.42753813    -0.58500
Mn266      Mn  0.00367153  0.76918433  0.49467245     1.20200
Mn267      Mn  0.91560846  0.69303502  0.50088437     1.10100
Cl268      Cl  0.99814558  0.68849679  0.50090710    -0.86500
C269        C  0.89369466  0.77922505  0.40896188     0.95900
C270        C  0.89936604  0.79711954  0.57865132     0.95700
C271        C  0.65643528  0.90162531  0.66202828    -0.12500
C272        C  0.69041727  0.93093547  0.65594581     0.03000
C273        C  0.73170908  0.91782562  0.64150379    -0.13000
C274        C  0.73994789  0.87561083  0.63262393     0.17900
C275        C  0.70518941  0.84664113  0.63668129    -0.10100
C276        C  0.66394713  0.85971459  0.65155870    -0.03000
H277        H  0.75794376  0.94046843  0.63840620     0.04400
C278        C  0.78537810  0.86177773  0.62132223     0.19800
H279        H  0.63836685  0.83681912  0.65650573     0.09600
C280        C  0.80921094  0.83499579  0.64719866    -0.16400
C281        C  0.84930165  0.81666946  0.63528064     0.02600
C282        C  0.86678352  0.82565395  0.59730902    -0.11700
C283        C  0.84497104  0.85515987  0.57286759    -0.01700
C284        C  0.80449289  0.87315547  0.58452292    -0.06900
H285        H  0.79548581  0.82677269  0.67602151     0.05600
H286        H  0.85756921  0.86169628  0.54319686     0.09000
Br287      Br  0.71274075  0.78877441  0.62266437    -0.06600
Br288      Br  0.68266586  0.98909474  0.66883081    -0.03500
Br289      Br  0.87804241  0.77780103  0.67083240    -0.00700
Br290      Br  0.77444374  0.90950762  0.54728011    -0.05100
C291        C  0.35334932  0.90491471  0.65539188    -0.12500
C292        C  0.35548932  0.87124475  0.62788457     0.03000
C293        C  0.31603789  0.85485894  0.61107583    -0.13000
C294        C  0.27443499  0.87202998  0.62102791     0.17900
C295        C  0.27265379  0.90701933  0.64675975    -0.10100
C296        C  0.31172214  0.92320748  0.66336841    -0.03000
H297        H  0.31766324  0.82764688  0.59149539     0.04400
C298        C  0.23300948  0.85035046  0.60897907     0.19800
H299        H  0.30925969  0.94937270  0.68418494     0.09600
C300        C  0.22104728  0.81461147  0.63018638    -0.16400
C301        C  0.18098089  0.79434386  0.62177445     0.02600
C302        C  0.15177382  0.80999973  0.59181154    -0.11700
C303        C  0.16327369  0.84639985  0.57120743    -0.01700
C304        C  0.20370097  0.86639979  0.57935992    -0.06900
H305        H  0.24295016  0.80256190  0.65362760     0.05600
H306        H  0.14181241  0.85817246  0.54731807     0.09000
Br307      Br  0.21730409  0.93129425  0.66332291    -0.06600
Br308      Br  0.41063287  0.84435881  0.61547143    -0.03500
Br309      Br  0.16741345  0.74571269  0.65257133    -0.00700
Br310      Br  0.21846968  0.91435324  0.54822094    -0.05100
C311        C  0.65216073  0.10878997  0.68002505    -0.12500
C312        C  0.66094451  0.10995661  0.63836419     0.03000
C313        C  0.70105293  0.12693535  0.62511148    -0.13000
C314        C  0.73289229  0.14263751  0.65269503     0.17900
C315        C  0.72296618  0.14339785  0.69395061    -0.10100
C316        C  0.68300898  0.12704329  0.70706188    -0.03000
H317        H  0.70791236  0.12703951  0.59318343     0.04400
C318        C  0.77581911  0.15896389  0.63817149     0.19800
H319        H  0.67707563  0.12678181  0.73916958     0.09600
C320        C  0.78540356  0.20132315  0.64406539    -0.16400
C321        C  0.82493733  0.21832733  0.63047134     0.02600
C322        C  0.85549425  0.19317483  0.60894284    -0.11700
C323        C  0.84691983  0.15024417  0.60465377    -0.01700
C324        C  0.80761266  0.13302676  0.61939505    -0.06900
H325        H  0.76180661  0.22141293  0.65933848     0.05600
H326        H  0.86988094  0.13033509  0.58843979     0.09000
Br327      Br  0.76432230  0.16315095  0.73428811    -0.06600
Br328      Br  0.62149957  0.08662004  0.59839206    -0.03500
Br329      Br  0.83536312  0.27623844  0.64310669    -0.00700
Br330      Br  0.79893132  0.07393163  0.61389022    -0.05100
C331        C  0.36570780  0.10316881  0.65717938    -0.12500
C332        C  0.34376901  0.07816021  0.62796410     0.03000
C333        C  0.30368170  0.09186792  0.61048125    -0.13000
C334        C  0.28465032  0.13015031  0.62197731     0.17900
C335        C  0.30760660  0.15605716  0.64968753    -0.10100
C336        C  0.34764271  0.14232507  0.66725882    -0.03000
H337        H  0.28623776  0.07172883  0.58922799     0.04400
C338        C  0.23974211  0.14157088  0.60672107     0.19800
H339        H  0.36377543  0.16152909  0.69010911     0.09600
C340        C  0.20301890  0.13735514  0.63198229    -0.16400
C341        C  0.16076086  0.15178914  0.61995887     0.02600
C342        C  0.15508844  0.17120665  0.58245403    -0.11700
C343        C  0.19129375  0.17279222  0.55622737    -0.01700
C344        C  0.23325863  0.15799242  0.56794362    -0.06900
H345        H  0.20758653  0.12401582  0.66166515     0.05600
H346        H  0.18738080  0.18754723  0.52709703     0.09000
Br347      Br  0.28466376  0.20976787  0.66536063    -0.06600
Br348      Br  0.36420547  0.02290654  0.61457873    -0.03500
Br349      Br  0.11263938  0.14729769  0.65656695    -0.00700
Br350      Br  0.28129245  0.16358767  0.53115343    -0.05100
C351        C  0.85793225  0.80012940  0.38498476    -0.12500
C352        C  0.85100870  0.84378786  0.38354695     0.03000
C353        C  0.80974605  0.85977095  0.36990501    -0.13000
C354        C  0.77497184  0.83284574  0.35822194     0.17900
C355        C  0.78280817  0.78952817  0.35811515    -0.10100
C356        C  0.82398855  0.77384155  0.37026599    -0.03000
H357        H  0.80448770  0.89325545  0.36908525     0.04400
C358        C  0.73147576  0.84961552  0.34376769     0.19800
H359        H  0.82834380  0.74021539  0.37071824     0.09600
C360        C  0.71827742  0.84088401  0.30395509    -0.16400
C361        C  0.67718306  0.85422364  0.28886247     0.02600
C362        C  0.64848856  0.87830009  0.31324654    -0.11700
C363        C  0.66090613  0.88605309  0.35363217    -0.01700
C364        C  0.70202894  0.87171726  0.36904267    -0.06900
H365        H  0.74015172  0.82323987  0.28443324     0.05600
H366        H  0.63961636  0.90484228  0.37267927     0.09000
Br367      Br  0.73710341  0.74979540  0.34530887    -0.06600
Br368      Br  0.89521658  0.88281300  0.40138504    -0.03500
Br369      Br  0.66208241  0.83812580  0.23440863    -0.00700
Br370      Br  0.71647723  0.88279095  0.42459894    -0.05100
C371        C  0.35706273  0.87342934  0.31956123    -0.12500
C372        C  0.32683769  0.84846276  0.29724721     0.03000
C373        C  0.28797809  0.83453027  0.31484420    -0.13000
C374        C  0.27823519  0.84390422  0.35511540     0.17900
C375        C  0.30998542  0.86613700  0.37854806    -0.10100
C376        C  0.34875625  0.88112068  0.36055691    -0.03000
H377        H  0.26490739  0.81623922  0.29672130     0.04400
C378        C  0.23635047  0.82679157  0.37168630     0.19800
H379        H  0.37156631  0.90005204  0.37828174     0.09600
C380        C  0.22940463  0.78369249  0.36805260    -0.16400
C381        C  0.18962285  0.76556189  0.37948496     0.02600
C382        C  0.15566587  0.79028676  0.39690542    -0.11700
C383        C  0.16187354  0.83376338  0.39955741    -0.01700
C384        C  0.20139540  0.85215707  0.38636429    -0.06900
H385        H  0.25501150  0.76390021  0.35529981     0.05600
H386        H  0.13620146  0.85347158  0.41224981     0.09000
Br387      Br  0.30285888  0.87568117  0.43523796    -0.06600
Br388      Br  0.33674467  0.83179181  0.24234843    -0.03500
Br389      Br  0.18353614  0.70688098  0.36804957    -0.00700
Br390      Br  0.20461356  0.91196408  0.38646084    -0.05100
C391        C  0.63628863  0.09784710  0.33360927    -0.12500
C392        C  0.65732763  0.13387454  0.31949739     0.03000
C393        C  0.69708624  0.14737789  0.33747126    -0.13000
C394        C  0.71713268  0.12502411  0.36917681     0.17900
C395        C  0.69473984  0.09038506  0.38494051    -0.10100
C396        C  0.65450102  0.07720280  0.36725023    -0.03000
H397        H  0.71327429  0.17470886  0.32573954     0.04400
C398        C  0.76158963  0.13818919  0.38461483     0.19800
H399        H  0.63916003  0.04898122  0.37796098     0.09600
C400        C  0.76603100  0.15379721  0.42405782    -0.16400
C401        C  0.80642710  0.17009279  0.43814720     0.02600
C402        C  0.84328041  0.17172435  0.41243907    -0.11700
C403        C  0.83958400  0.15436739  0.37363722    -0.01700
C404        C  0.79922119  0.13743450  0.35972324    -0.06900
H405        H  0.73764518  0.15422600  0.44368427     0.05600
H406        H  0.86756351  0.15540375  0.35359675     0.09000
Br407      Br  0.71989932  0.05769878  0.42786670    -0.06600
Br408      Br  0.63348944  0.16490743  0.27483641    -0.03500
Br409      Br  0.80950760  0.19013009  0.49286849    -0.00700
Br410      Br  0.79697923  0.11358503  0.30649489    -0.05100
C411        C  0.13980984  0.16305896  0.39943091    -0.12500
C412        C  0.16244167  0.17562357  0.36480789     0.03000
C413        C  0.20196371  0.15565832  0.35388006    -0.13000
C414        C  0.22074496  0.12392984  0.37770399     0.17900
C415        C  0.19804952  0.11103474  0.41229320    -0.10100
C416        C  0.15750425  0.13008530  0.42244671    -0.03000
H417        H  0.21908330  0.16605994  0.32735916     0.04400
C418        C  0.26512876  0.10697894  0.36673095     0.19800
H419        H  0.14164719  0.12141281  0.45019028     0.09600
C420        C  0.30140889  0.13437482  0.36521278    -0.16400
C421        C  0.34222796  0.12126843  0.34947508     0.02600
C422        C  0.34768579  0.07983002  0.33608344    -0.11700
C423        C  0.31205531  0.05204922  0.33907104    -0.01700
C424        C  0.27087489  0.06537101  0.35345542    -0.06900
H425        H  0.29722709  0.16671168  0.37442220     0.05600
H426        H  0.31534281  0.02046677  0.32733508     0.09000
Br427      Br  0.22354737  0.07135032  0.44914834    -0.06600
Br428      Br  0.14201346  0.22164782  0.33265791    -0.03500
Br429      Br  0.38771752  0.16191669  0.34241433    -0.00700
Br430      Br  0.22231424  0.02711328  0.34888450    -0.05100
C431        C  0.59240772  0.84671802  0.11807466    -0.12500
C432        C  0.63583391  0.83146709  0.11249650     0.03000
C433        C  0.64315032  0.78863368  0.10591539    -0.13000
C434        C  0.60779814  0.76017955  0.10533137     0.17900
C435        C  0.56441403  0.77551268  0.11126380    -0.10100
C436        C  0.55697302  0.81844722  0.11681625    -0.03000
H437        H  0.67672898  0.77736289  0.10154926     0.04400
C438        C  0.61776516  0.71470996  0.10076689     0.19800
H439        H  0.52345433  0.82958692  0.12185820     0.09600
C440        C  0.64533275  0.69545584  0.12972516    -0.16400
C441        C  0.66133896  0.65469816  0.12390861     0.02600
C442        C  0.64899972  0.63177734  0.08911880    -0.11700
C443        C  0.61906015  0.64992786  0.06139502    -0.01700
C444        C  0.60403214  0.69126405  0.06654235    -0.06900
H445        H  0.65629595  0.71302257  0.15607397     0.05600
H446        H  0.61081009  0.63343765  0.03363281     0.09000
Br447      Br  0.51479468  0.73892410  0.11548079    -0.06600
Br448      Br  0.68596843  0.86798544  0.11224778    -0.03500
Br449      Br  0.70296461  0.63269605  0.16273216    -0.00700
Br450      Br  0.57010791  0.71577206  0.02323572    -0.05100
C451        C  0.58223420  0.14810120  0.12681103    -0.12500
C452        C  0.58813594  0.16292488  0.08738577     0.03000
C453        C  0.59796862  0.20514595  0.08125685    -0.13000
C454        C  0.60160949  0.23326407  0.11388466     0.17900
C455        C  0.59280065  0.21893414  0.15296708    -0.10100
C456        C  0.58394805  0.17660789  0.15919603    -0.03000
H457        H  0.60456173  0.21573314  0.05104061     0.04400
C458        C  0.61904916  0.27589246  0.10682247     0.19800
H459        H  0.57806946  0.16594647  0.18949626     0.09600
C460        C  0.59512060  0.30410711  0.08241038    -0.16400
C461        C  0.61368193  0.34236631  0.07107065     0.02600
C462        C  0.65697562  0.35296739  0.08444480    -0.11700
C463        C  0.67998918  0.32523501  0.10994728    -0.01700
C464        C  0.66178669  0.28701662  0.12078934    -0.06900
H465        H  0.56260869  0.29556294  0.07079649     0.05600
H466        H  0.71359967  0.33229985  0.11972403     0.09000
Br467      Br  0.59217413  0.25607232  0.19868324    -0.06600
Br468      Br  0.58693121  0.12630554  0.04129305    -0.03500
Br469      Br  0.58044173  0.37609421  0.03364272    -0.00700
Br470      Br  0.69908192  0.24914587  0.15079202    -0.05100
C471        C  0.65811663  0.63052748  0.89008514    -0.12500
C472        C  0.61415501  0.64025960  0.90120079     0.03000
C473        C  0.59574746  0.67919012  0.89117710    -0.13000
C474        C  0.62023860  0.70858427  0.86994967     0.17900
C475        C  0.66292793  0.69764860  0.85646348    -0.10100
C476        C  0.68120679  0.65880178  0.86627053    -0.03000
H477        H  0.56310334  0.68749173  0.90189987     0.04400
C478        C  0.60340665  0.75198390  0.86659220     0.19800
H479        H  0.71514494  0.65199603  0.85794599     0.09600
C480        C  0.59984587  0.77657188  0.90172165    -0.16400
C481        C  0.59001604  0.81934960  0.89945907     0.02600
C482        C  0.58480775  0.83819010  0.86148744    -0.11700
C483        C  0.58579872  0.81304125  0.82658530    -0.01700
C484        C  0.59404578  0.77011608  0.82896129    -0.06900
H485        H  0.60627812  0.76272474  0.93091829     0.05600
H486        H  0.58018691  0.82688542  0.79726495     0.09000
Br487      Br  0.70028746  0.73642942  0.82940208    -0.06600
Br488      Br  0.57956309  0.60461964  0.93441755    -0.03500
Br489      Br  0.58737412  0.85094789  0.94876390    -0.00700
Br490      Br  0.59181112  0.73739363  0.78023393    -0.05100
C491        C  0.60296102  0.14270901  0.86812235    -0.12500
C492        C  0.64722545  0.15623785  0.87229877     0.03000
C493        C  0.65633545  0.19889188  0.87704877    -0.13000
C494        C  0.62200801  0.22881596  0.87627106     0.17900
C495        C  0.57804959  0.21545132  0.86989534    -0.10100
C496        C  0.56866392  0.17268662  0.86712992    -0.03000
H497        H  0.69039449  0.20880499  0.88109363     0.04400
C498        C  0.63293974  0.27379972  0.88099974     0.19800
H499        H  0.53470257  0.16294391  0.86205211     0.09600
C500        C  0.66071962  0.29252887  0.85294619    -0.16400
C501        C  0.67498970  0.33373904  0.85841281     0.02600
C502        C  0.66034900  0.35748948  0.89163316    -0.11700
C503        C  0.63096549  0.33942944  0.91869793    -0.01700
C504        C  0.61815644  0.29765018  0.91424968    -0.06900
H505        H  0.67278536  0.27445557  0.82756764     0.05600
H506        H  0.62158828  0.35647056  0.94564590     0.09000
Br507      Br  0.53081376  0.25477473  0.86031915    -0.06600
Br508      Br  0.69637831  0.11777498  0.87235221    -0.03500
Br509      Br  0.71733900  0.35544002  0.82160787    -0.00700
Br510      Br  0.58597980  0.27312142  0.95743459    -0.05100
C511        C  0.90343656  0.61945523  0.65106450    -0.12500
C512        C  0.89202512  0.58212371  0.67015470     0.03000
C513        C  0.88897171  0.58138922  0.71206740    -0.13000
C514        C  0.89807545  0.61725384  0.73520650     0.17900
C515        C  0.91033702  0.65432442  0.71623491    -0.10100
C516        C  0.91230747  0.65538528  0.67429215    -0.03000
H517        H  0.87955744  0.55276127  0.72672297     0.04400
C518        C  0.89456068  0.61503733  0.77915580     0.19800
H519        H  0.92219703  0.68396660  0.65982325     0.09600
C520        C  0.92895704  0.59622212  0.80139109    -0.16400
C521        C  0.92456839  0.58906876  0.84258417     0.02600
C522        C  0.88474257  0.60056426  0.86191867    -0.11700
C523        C  0.85152942  0.62178558  0.83975201    -0.01700
C524        C  0.85607006  0.62881795  0.79863971    -0.06900
H525        H  0.95892092  0.58619251  0.78638182     0.05600
H526        H  0.82080291  0.63111178  0.85384329     0.09000
Br527      Br  0.92635441  0.70335047  0.74660524    -0.06600
Br528      Br  0.87950064  0.53184214  0.64037114    -0.03500
Br529      Br  0.97433555  0.56378396  0.87003272    -0.00700
Br530      Br  0.80763596  0.65471013  0.76978979    -0.05100
C531        C  0.87076057  0.57036064  0.14993031    -0.12500
C532        C  0.89900727  0.54349755  0.17261093     0.03000
C533        C  0.90207252  0.54800700  0.21439692    -0.13000
C534        C  0.87716729  0.57834905  0.23457782     0.17900
C535        C  0.84865381  0.60482986  0.21245580    -0.10100
C536        C  0.84570311  0.60074073  0.17057841    -0.03000
H537        H  0.92450365  0.52798682  0.23135300     0.04400
C538        C  0.88425536  0.58417165  0.27825692     0.19800
H539        H  0.82340775  0.62141522  0.15419271     0.09600
C540        C  0.90443663  0.62105584  0.29182441    -0.16400
C541        C  0.91207530  0.62818329  0.33277055     0.02600
C542        C  0.89939589  0.59804195  0.36086144    -0.11700
C543        C  0.88083318  0.56035621  0.34740638    -0.01700
C544        C  0.87307206  0.55324783  0.30624426    -0.06900
H545        H  0.91452583  0.64429464  0.27036624     0.05600
H546        H  0.87171208  0.53682941  0.36893223     0.09000
Br547      Br  0.81237171  0.64639871  0.23822938    -0.06600
Br548      Br  0.93424027  0.49945963  0.15005795    -0.03500
Br549      Br  0.94224960  0.67853143  0.34850932    -0.00700
Br550      Br  0.84590836  0.50170664  0.28995608    -0.05100
C551        C  0.88781854  0.41327423  0.84773556    -0.12500
C552        C  0.87383033  0.37708287  0.82635572     0.03000
C553        C  0.88192493  0.37330682  0.78512687    -0.13000
C554        C  0.90415668  0.40467936  0.76468036     0.17900
C555        C  0.91946333  0.44001416  0.78592015    -0.10100
C556        C  0.91131725  0.44406852  0.82710109    -0.03000
H557        H  0.87056209  0.34584185  0.76879333     0.04400
C558        C  0.90967723  0.40066740  0.72085394     0.19800
H559        H  0.92228633  0.47210571  0.84267781     0.09600
C560        C  0.87350755  0.40960697  0.69519218    -0.16400
C561        C  0.87749916  0.40573421  0.65342554     0.02600
C562        C  0.91839944  0.39370590  0.63703420    -0.11700
C563        C  0.95466749  0.38510957  0.66270210    -0.01700
C564        C  0.95025426  0.38768719  0.70444585    -0.06900
H565        H  0.84208649  0.41936630  0.70773935     0.05600
H566        H  0.98593544  0.37464169  0.65029220     0.09000
Br567      Br  0.94987577  0.48422214  0.75941257    -0.06600
Br568      Br  0.84432838  0.33111709  0.85101029    -0.03500
Br569      Br  0.82678335  0.41800351  0.61988197    -0.00700
Br570      Br  0.99916784  0.37035413  0.73794209    -0.05100
C571        C  0.87709446  0.40364477  0.13557742    -0.12500
C572        C  0.84911342  0.42420841  0.16301657     0.03000
C573        C  0.85652112  0.41956065  0.20428691    -0.13000
C574        C  0.89182086  0.39487301  0.21860763     0.17900
C575        C  0.91936599  0.37368580  0.19115773    -0.10100
C576        C  0.91205813  0.37846704  0.14973334    -0.03000
H577        H  0.83498720  0.43540391  0.22518184     0.04400
C578        C  0.89813906  0.39068380  0.26238335     0.19800
H579        H  0.93361849  0.36273287  0.12866276     0.09600
C580        C  0.86822929  0.36640391  0.28358818    -0.16400
C581        C  0.87256874  0.36165856  0.32523658     0.02600
C582        C  0.90788688  0.38147212  0.34638643    -0.11700
C583        C  0.93695618  0.40692996  0.32490929    -0.01700
C584        C  0.93217916  0.41178749  0.28333742    -0.06900
H585        H  0.84132449  0.35093249  0.26750783     0.05600
H586        H  0.96399294  0.42284960  0.34031707     0.09000
Br587      Br  0.96634293  0.33717269  0.20888652    -0.06600
Br588      Br  0.80170525  0.46054426  0.14559265    -0.03500
Br589      Br  0.82839579  0.32816794  0.35034910    -0.00700
Br590      Br  0.97212086  0.44837410  0.25676745    -0.05100
C591        C  0.40728413  0.84458783  0.85732284    -0.12500
C592        C  0.41390999  0.82433230  0.89467564     0.03000
C593        C  0.40380767  0.78175896  0.89850216    -0.13000
C594        C  0.38789315  0.75797119  0.86555394     0.17900
C595        C  0.38298626  0.77783385  0.82788888    -0.10100
C596        C  0.39219273  0.82054901  0.82421101    -0.03000
H597        H  0.40700734  0.76745925  0.92786693     0.04400
C598        C  0.37136942  0.71456692  0.87247738     0.19800
H599        H  0.38789342  0.83493855  0.79498594     0.09600
C600        C  0.32669365  0.70579930  0.86367818    -0.16400
C601        C  0.30751596  0.66807203  0.87497695     0.02600
C602        C  0.33249281  0.63830094  0.89714981    -0.11700
C603        C  0.37807170  0.64551621  0.90341147    -0.01700
C604        C  0.39760610  0.68309545  0.89104857    -0.06900
H605        H  0.30592636  0.72917416  0.84914682     0.05600
H606        H  0.39809726  0.62295619  0.91986440     0.09000
Br607      Br  0.36493508  0.74792383  0.78006049    -0.06600
Br608      Br  0.43384592  0.85328221  0.94240723    -0.03500
Br609      Br  0.24660941  0.65925423  0.85931673    -0.00700
Br610      Br  0.46008367  0.69007997  0.90038192    -0.05100
C611        C  0.34744981  0.35885178  0.90711477    -0.12500
C612        C  0.34762865  0.32470083  0.93376619     0.03000
C613        C  0.36788839  0.28716938  0.92298352    -0.13000
C614        C  0.38913227  0.28239675  0.88607185     0.17900
C615        C  0.39070439  0.31699265  0.85985642    -0.10100
C616        C  0.36994819  0.35497441  0.87058743    -0.03000
H617        H  0.36534989  0.26080323  0.94305002     0.04400
C618        C  0.40374874  0.23955688  0.87431180     0.19800
H619        H  0.36981074  0.38080606  0.84971834     0.09600
C620        C  0.38332819  0.22042257  0.84081228    -0.16400
C621        C  0.38947764  0.17787938  0.83237574     0.02600
C622        C  0.41702314  0.15310124  0.85791234    -0.11700
C623        C  0.43854091  0.17274444  0.89081340    -0.01700
C624        C  0.43175026  0.21521358  0.89942851    -0.06900
H625        H  0.36063560  0.23834667  0.82200455     0.05600
H626        H  0.46010711  0.15482585  0.91064883     0.09000
Br627      Br  0.41983366  0.31367775  0.80895402    -0.06600
Br628      Br  0.31913119  0.32630609  0.98506457    -0.03500
Br629      Br  0.35746460  0.15678052  0.78606685    -0.00700
Br630      Br  0.46101452  0.23809013  0.94642034    -0.05100
C631        C  0.41159252  0.83743226  0.13127150    -0.12500
C632        C  0.39734896  0.81809594  0.09518426     0.03000
C633        C  0.38906884  0.77507190  0.09429267    -0.13000
C634        C  0.39505187  0.75070199  0.12898596     0.17900
C635        C  0.41153985  0.76966559  0.16454026    -0.10100
C636        C  0.41930874  0.81275738  0.16552765    -0.03000
H637        H  0.37650557  0.76076428  0.06672816     0.04400
C638        C  0.38129459  0.70632413  0.12747250     0.19800
H639        H  0.43102945  0.82718739  0.19333592     0.09600
C640        C  0.40514841  0.67769394  0.10380258    -0.16400
C641        C  0.38799162  0.63813375  0.09438590     0.02600
C642        C  0.34573541  0.62693061  0.10843978    -0.11700
C643        C  0.32381738  0.65436991  0.13496060    -0.01700
C644        C  0.34104838  0.69376119  0.14438349    -0.06900
H645        H  0.43597565  0.68711611  0.09044083     0.05600
H646        H  0.29126496  0.64647572  0.14588230     0.09000
Br647      Br  0.42422098  0.73792903  0.21214258    -0.06600
Br648      Br  0.38526476  0.84963170  0.04746722    -0.03500
Br649      Br  0.42142338  0.60377818  0.05798414    -0.00700
Br650      Br  0.30544243  0.73110097  0.17616835    -0.05100
C651        C  0.34271505  0.35818881  0.09840425    -0.12500
C652        C  0.32418567  0.33652467  0.13070117     0.03000
C653        C  0.33972722  0.29653935  0.14071442    -0.13000
C654        C  0.37372127  0.27721138  0.11872388     0.17900
C655        C  0.39430283  0.30004107  0.08803300    -0.10100
C656        C  0.37911679  0.34042204  0.07852528    -0.03000
H657        H  0.32370857  0.27960032  0.16449737     0.04400
C658        C  0.38297019  0.23189546  0.12494204     0.19800
H659        H  0.39298614  0.35622178  0.05293722     0.09600
C660        C  0.34933961  0.20298650  0.11561369    -0.16400
C661        C  0.35636995  0.15995198  0.12043446     0.02600
C662        C  0.39780695  0.14501012  0.13431213    -0.11700
C663        C  0.43141365  0.17377842  0.14389944    -0.01700
C664        C  0.42405387  0.21692036  0.14002580    -0.06900
H665        H  0.31750185  0.21398149  0.10419578     0.05600
H666        H  0.46322889  0.16266722  0.15529951     0.09000
Br667      Br  0.43904757  0.27558087  0.05459479    -0.06600
Br668      Br  0.27574759  0.35976475  0.16038033    -0.03500
Br669      Br  0.30915224  0.12260026  0.10609944    -0.00700
Br670      Br  0.47008141  0.25410827  0.15781733    -0.05100
C671        C  0.08744296  0.60081911  0.65146001    -0.12500
C672        C  0.05950559  0.57729842  0.67653436     0.03000
C673        C  0.06882182  0.57518418  0.71770272    -0.13000
C674        C  0.10515534  0.59615248  0.73457842     0.17900
C675        C  0.13378104  0.61839002  0.70992646    -0.10100
C676        C  0.12481445  0.62057053  0.66869669    -0.03000
H677        H  0.04703802  0.55775284  0.73695055     0.04400
C678        C  0.11190543  0.59500294  0.77824909     0.19800
H679        H  0.14679470  0.63861525  0.65024137     0.09600
C680        C  0.14448291  0.56831619  0.79424892    -0.16400
C681        C  0.15004165  0.56487760  0.83579484     0.02600
C682        C  0.12277191  0.58852393  0.86156677    -0.11700
C683        C  0.09029472  0.61531347  0.84565672    -0.01700
C684        C  0.08470780  0.61870999  0.80402284    -0.06900
H685        H  0.16500642  0.54967427  0.77437949     0.05600
H686        H  0.06905252  0.63314313  0.86556320     0.09000
Br687      Br  0.18424943  0.64765550  0.73158014    -0.06600
Br688      Br  0.00713437  0.54845824  0.65846055    -0.03500
Br689      Br  0.19415991  0.52647807  0.85601446    -0.00700
Br690      Br  0.03969343  0.65585781  0.78353352    -0.05100
C691        C  0.12036116  0.56823523  0.15186776    -0.12500
C692        C  0.07663563  0.56875661  0.16629412     0.03000
C693        C  0.06932796  0.56968067  0.20779069    -0.13000
C694        C  0.10516364  0.56966569  0.23518042     0.17900
C695        C  0.14880380  0.56775851  0.22082551    -0.10100
C696        C  0.15614702  0.56757581  0.17938912    -0.03000
H697        H  0.03567748  0.57153901  0.21872585     0.04400
C698        C  0.09679310  0.57588052  0.27838561     0.19800
H699        H  0.18988275  0.56604308  0.16864413     0.09600
C700        C  0.08286536  0.54243499  0.30194966    -0.16400
C701        C  0.07655743  0.54775547  0.34345383     0.02600
C702        C  0.08390039  0.58722871  0.36156963    -0.11700
C703        C  0.09702240  0.62063575  0.33749662    -0.01700
C704        C  0.10332478  0.61529598  0.29632106    -0.06900
H705        H  0.07748384  0.51209158  0.28813849     0.05600
H706        H  0.10162304  0.65142120  0.35059223     0.09000
Br707      Br  0.19914162  0.56499425  0.25688117    -0.06600
Br708      Br  0.02599280  0.57118833  0.13063653    -0.03500
Br709      Br  0.06042306  0.49973951  0.37394407    -0.00700
Br710      Br  0.11995364  0.66304015  0.26554802    -0.05100
C711        C  0.12603383  0.42289793  0.84580863    -0.12500
C712        C  0.08639729  0.43355799  0.82500468     0.03000
C713        C  0.08474540  0.43135790  0.78286065    -0.13000
C714        C  0.12146188  0.41717519  0.76104489     0.17900
C715        C  0.16137378  0.40787921  0.78165565    -0.10100
C716        C  0.16333919  0.41067918  0.82357879    -0.03000
H717        H  0.05410597  0.43915980  0.76713539     0.04400
C718        C  0.11621316  0.40832057  0.71749466     0.19800
H719        H  0.19447535  0.40342449  0.83880312     0.09600
C720        C  0.11018671  0.44125055  0.69032017    -0.16400
C721        C  0.10372982  0.43317778  0.64905666     0.02600
C722        C  0.10326787  0.39155662  0.63459842    -0.11700
C723        C  0.10965342  0.35881753  0.66192457    -0.01700
C724        C  0.11553619  0.36682255  0.70304310    -0.06900
H725        H  0.11053219  0.47326571  0.70125341     0.05600
H726        H  0.10839130  0.32666504  0.65148137     0.09000
Br727      Br  0.21416210  0.39136432  0.75389142    -0.06600
Br728      Br  0.03246880  0.44750946  0.85215287    -0.03500
Br729      Br  0.09776234  0.48002592  0.61371483    -0.00700
Br730      Br  0.11941022  0.31985755  0.73858737    -0.05100
C731        C  0.11583364  0.39340513  0.13412825    -0.12500
C732        C  0.07773677  0.40853977  0.15415066     0.03000
C733        C  0.07260988  0.40077328  0.19509623    -0.13000
C734        C  0.10426434  0.37761664  0.21664043     0.17900
C735        C  0.14047887  0.35990744  0.19646841    -0.10100
C736        C  0.14607567  0.36784141  0.15549034    -0.03000
H737        H  0.04418308  0.41361438  0.21046599     0.04400
C738        C  0.10008640  0.37433105  0.26057043     0.19800
H739        H  0.17502509  0.35513413  0.14073528     0.09600
C740        C  0.07601769  0.34136435  0.27662558    -0.16400
C741        C  0.07083566  0.33823752  0.31823663     0.02600
C742        C  0.08996012  0.36843862  0.34416277    -0.11700
C743        C  0.11360685  0.40164271  0.32809025    -0.01700
C744        C  0.11891147  0.40466899  0.28647299    -0.06900
H745        H  0.06108134  0.31822695  0.25673493     0.05600
H746        H  0.12824849  0.42499969  0.34793275     0.09000
Br747      Br  0.18356838  0.32605426  0.22437919    -0.06600
Br748      Br  0.03100919  0.43966399  0.12816608    -0.03500
Br749      Br  0.03588491  0.29327553  0.33824356    -0.00700
Br750      Br  0.15231547  0.45039713  0.26609216    -0.05100
loop_ 
_geom_bond_atom_site_label_1 
_geom_bond_atom_site_label_2 
_geom_bond_distance 
_geom_bond_site_symmetry_2 
_ccdc_geom_bond_type 
N1            N2   1.328       .  A
N1            N7   1.320       .  A
N1          Mn30   2.241   1_554  S
N2            C9   1.360       .  A
N3            N5   1.320       .  A
N3            N4   1.314       .  A
N3          Mn19   2.189       .  S
N4           C10   1.344       .  A
N5            N6   1.328       .  A
N5          Mn30   2.234       .  S
N6           C10   1.359       .  A
N7            N8   1.315       .  A
N7          Mn19   2.193   1_554  S
N8            C9   1.346       .  A
C9          C651   1.479       .  S
C10         C611   1.477       .  S
N11          N17   1.313       .  A
N11          N12   1.321       .  A
N11         Mn41   2.191       .  S
N12          C20   1.353       .  A
N13          N14   1.321       .  A
N13          N15   1.310       .  A
N13         Mn19   2.195   1_554  S
N14          C21   1.355       .  A
N15          N16   1.317       .  A
N15         Mn41   2.181   1_554  S
N16          C21   1.351       .  A
N17          N18   1.317       .  A
N17         Mn19   2.191       .  S
N18          C20   1.351       .  A
Mn19        Cl43   2.500       .  S
C20         C711   1.478       .  S
C21         C731   1.483       .  S
N22          N23   1.331       .  A
N22          N28   1.320       .  A
N22         Mn30   2.259       .  S
N23          C31   1.364       .  A
N24          N26   1.318       .  A
N24          N25   1.315       .  A
N24         Mn42   2.179       .  S
N25          C32   1.347       .  A
N26          N27   1.326       .  A
N26         Mn30   2.232   1_554  S
N27          C32   1.359       .  A
N28          N29   1.316       .  A
N28         Mn42   2.199   1_556  S
N29          C31   1.347       .  A
Mn30        Cl43   2.585       .  S
C31         C602   1.494       .  S
C32         C642   1.483       .  S
N33          N34   1.317       .  A
N33          N39   1.314       .  A
N33         Mn41   2.178   1_554  S
N34          C44   1.348       .  A
N35          N36   1.318       .  A
N35          N37   1.313       .  A
N35         Mn42   2.191   1_556  S
N36          C45   1.350       .  A
N37          N38   1.317       .  A
N37         Mn41   2.170       .  S
N38          C45   1.347       .  A
N39          N40   1.321       .  A
N39         Mn42   2.205       .  S
N40          C44   1.354       .  A
Mn41        Cl43   2.585       .  S
Mn42        Cl43   2.502   1_554  S
C44         C691   1.470       .  S
C45         C682   1.452       .  S
N46          N47   1.318       .  A
N46          N52   1.312       .  A
N46         Mn75   2.186   1_554  S
N47          C54   1.349       .  A
N48          N50   1.312       .  A
N48          N49   1.318       .  A
N48         Mn64   2.198       .  S
N49          C55   1.352       .  A
N50          N51   1.320       .  A
N50         Mn75   2.187       .  S
N51          C55   1.354       .  A
N52          N53   1.319       .  A
N52         Mn64   2.183   1_554  S
N53          C54   1.350       .  A
C54         C571   1.459       .  S
C55         C551   1.482       .  S
N56          N62   1.318       .  A
N56          N57   1.327       .  A
N56         Mn86   2.233       .  S
N57          C65   1.359       .  A
N58          N59   1.316       .  A
N58          N60   1.320       .  A
N58         Mn64   2.202   1_554  S
N59          C66   1.347       .  A
N60          N61   1.328       .  A
N60         Mn86   2.232   1_554  S
N61          C66   1.359       .  A
N62          N63   1.313       .  A
N62         Mn64   2.171       .  S
N63          C65   1.343       .  A
Mn64        Cl88   2.499       .  S
C65         C502   1.471       .  S
C66         C462   1.486       .  S
N67          N68   1.319       .  A
N67          N73   1.311       .  A
N67         Mn75   2.184       .  S
N68          C76   1.353       .  A
N69          N71   1.313       .  A
N69          N70   1.320       .  A
N69         Mn87   2.196   1_554  S
N70          C77   1.354       .  A
N71          N72   1.318       .  A
N71         Mn75   2.189   1_554  S
N72          C77   1.350       .  A
N73          N74   1.318       .  A
N73         Mn87   2.190       .  S
N74          C76   1.353       .  A
Mn75        Cl88   2.583       .  S
C76         C522   1.478       .  S
C77         C531   1.484       .  S
N78          N79   1.329       .  A
N78          N84   1.319       .  A
N78         Mn86   2.245   1_554  S
N79          C89   1.361       .  A
N80          N81   1.315       .  A
N80          N82   1.319       .  A
N80         Mn87   2.195       .  S
N81          C90   1.348       .  A
N82          N83   1.324       .  A
N82         Mn86   2.220       .  S
N83          C90   1.356       .  A
N84          N85   1.315       .  A
N84         Mn87   2.181   1_554  S
N85          C89   1.343       .  A
Mn86        Cl88   2.583       .  S
Mn87        Cl88   2.502       .  S
C89         C442   1.478       .  S
C90         C471   1.476       .  S
N91          N92   1.329       .  A
N91          N97   1.320       .  A
N91        Mn120   2.246   1_545  S
N92          C99   1.360       .  A
N93          N95   1.319       .  A
N93          N94   1.313       .  A
N93        Mn109   2.183       .  S
N94         C100   1.343       .  A
N95          N96   1.331       .  A
N95        Mn120   2.247       .  S
N96         C100   1.363       .  A
N97          N98   1.314       .  A
N97        Mn109   2.179   1_545  S
N98          C99   1.343       .  A
C99         C422   1.475       .  S
C100        C371   1.487       .  S
N101        N107   1.314       .  A
N101        N102   1.326       .  A
N101       Mn131   2.214       .  S
N102        C110   1.356       .  A
N103        N104   1.324       .  A
N103        N105   1.314       .  A
N103       Mn109   2.211   1_545  S
N104        C111   1.354       .  A
N105        N106   1.322       .  A
N105       Mn131   2.198   1_545  S
N106        C111   1.351       .  A
N107        N108   1.319       .  A
N107       Mn109   2.189       .  S
N108        C110   1.348       .  A
Mn109      Cl133   2.502       .  S
C110        C631   1.478       .  S
C111        C662   1.480       .  S
N112        N113   1.331       .  A
N112        N118   1.319       .  A
N112       Mn120   2.253       .  S
N113        C121   1.364       .  A
N114        N116   1.320       .  A
N114        N115   1.317       .  A
N114       Mn132   2.198   1_545  S
N115        C122   1.347       .  A
N116        N117   1.327       .  A
N116       Mn120   2.234   1_545  S
N117        C122   1.358       .  A
N118        N119   1.311       .  A
N118       Mn132   2.176       .  S
N119        C121   1.342       .  A
Mn120      Cl133   2.598       .  S
C121        C362   1.482       .  S
C122        C391   1.479       .  S
N123        N124   1.323       .  A
N123        N129   1.314       .  A
N123       Mn131   2.203   1_545  S
N124        C134   1.353       .  A
N125        N126   1.324       .  A
N125        N127   1.314       .  A
N125       Mn132   2.218       .  S
N126        C135   1.355       .  A
N127        N128   1.321       .  A
N127       Mn131   2.191       .  S
N128        C135   1.352       .  A
N129        N130   1.322       .  A
N129       Mn132   2.209   1_545  S
N130        C134   1.354       .  A
Mn131      Cl133   2.580       .  S
Mn132      Cl133   2.504       .  S
C134        C451   1.482       .  S
C135        C431   1.481       .  S
N136        N137   1.324       .  A
N136        N142   1.312       .  A
N136       Mn165   2.204   1_545  S
N137        C144   1.357       .  A
N138        N140   1.313       .  A
N138        N139   1.324       .  A
N138       Mn154   2.213       .  S
N139        C145   1.356       .  A
N140        N141   1.324       .  A
N140       Mn165   2.206       .  S
N141        C145   1.354       .  A
N142        N143   1.319       .  A
N142       Mn154   2.194   1_545  S
N143        C144   1.350       .  A
C144        C622   1.493       .  S
C145        C591   1.497       .  S
N146        N152   1.321       .  A
N146        N147   1.331       .  A
N146       Mn176   2.256       .  S
N147        C155   1.363       .  A
N148        N149   1.317       .  A
N148        N150   1.319       .  A
N148       Mn154   2.193   1_545  S
N149        C156   1.346       .  A
N150        N151   1.326       .  A
N150       Mn176   2.229   1_545  S
N151        C156   1.357       .  A
N152        N153   1.312       .  A
N152       Mn154   2.176       .  S
N153        C155   1.342       .  A
Mn154      Cl178   2.497       .  S
C155        C291   1.484       .  S
C156        C331   1.475       .  S
N157        N158   1.324       .  A
N157        N163   1.314       .  A
N157       Mn165   2.205       .  S
N158        C166   1.353       .  A
N159        N161   1.313       .  A
N159        N160   1.321       .  A
N159       Mn177   2.198   1_545  S
N160        C167   1.351       .  A
N161        N162   1.324       .  A
N161       Mn165   2.203   1_545  S
N162        C167   1.355       .  A
N163        N164   1.318       .  A
N163       Mn177   2.192       .  S
N164        C166   1.350       .  A
Mn165      Cl178   2.582       .  S
C166        C482   1.476       .  S
C167        C491   1.481       .  S
N168        N169   1.330       .  A
N168        N174   1.318       .  A
N168       Mn176   2.247   1_545  S
N169        C179   1.363       .  A
N170        N171   1.316       .  A
N170        N172   1.321       .  A
N170       Mn177   2.188       .  S
N171        C180   1.344       .  A
N172        N173   1.328       .  A
N172       Mn176   2.242       .  S
N173        C180   1.359       .  A
N174        N175   1.311       .  A
N174       Mn177   2.174   1_545  S
N175        C179   1.344       .  A
Mn176      Cl178   2.593       .  S
Mn177      Cl178   2.498       .  S
C179        C311   1.488       .  S
C180        C271   1.478       .  S
N181        N182   1.328       .  A
N181        N187   1.321       .  A
N181       Mn210   2.245   1_455  S
N182        C189   1.360       .  A
N183        N185   1.321       .  A
N183        N184   1.312       .  A
N183       Mn199   2.174       .  S
N184        C190   1.341       .  A
N185        N186   1.330       .  A
N185       Mn210   2.248   1_455  S
N186        C190   1.360       .  A
N187        N188   1.316       .  A
N187       Mn199   2.192       .  S
N188        C189   1.345       .  A
C189        C411   1.479       .  S
C190        C342   1.478       .  S
N191        N197   1.312       .  A
N191        N192   1.320       .  A
N191       Mn221   2.185       .  S
N192        C200   1.352       .  A
N193        N194   1.319       .  A
N193        N195   1.312       .  A
N193       Mn199   2.190       .  S
N194        C201   1.350       .  A
N195        N196   1.320       .  A
N195       Mn221   2.185       .  S
N196        C201   1.350       .  A
N197        N198   1.321       .  A
N197       Mn199   2.204       .  S
N198        C200   1.354       .  A
Mn199      Cl223   2.493       .  S
C200        C722   1.477       .  S
C201        C742   1.463       .  S
N202        N203   1.331       .  A
N202        N208   1.320       .  A
N202       Mn210   2.255       .  S
N203        C211   1.364       .  A
N204        N206   1.321       .  A
N204        N205   1.316       .  A
N204       Mn222   2.186       .  S
N205        C212   1.344       .  A
N206        N207   1.329       .  A
N206       Mn210   2.249       .  S
N207        C212   1.359       .  A
N208        N209   1.312       .  A
N208       Mn222   2.180       .  S
N209        C211   1.343       .  A
Mn210      Cl223   2.589   1_655  S
C211        C322   1.487       .  S
C212        C402   1.480       .  S
N213        N214   1.318       .  A
N213        N219   1.312       .  A
N213       Mn221   2.183   1_655  S
N214        C224   1.353       .  A
N215        N216   1.319       .  A
N215        N217   1.313       .  A
N215       Mn222   2.194       .  S
N216        C225   1.350       .  A
N217        N218   1.319       .  A
N217       Mn221   2.182   1_655  S
N218        C225   1.350       .  A
N219        N220   1.318       .  A
N219       Mn222   2.190       .  S
N220        C224   1.352       .  A
Mn221      Cl223   2.593       .  S
Mn222      Cl223   2.500   1_655  S
C224        C582   1.481       .  S
C225        C562   1.464       .  S
N226        N227   1.322       .  A
N226        N232   1.314       .  A
N226       Mn255   2.194   1_455  S
N227        C234   1.353       .  A
N228        N230   1.312       .  A
N228        N229   1.318       .  A
N228       Mn244   2.191       .  S
N229        C235   1.354       .  A
N230        N231   1.317       .  A
N230       Mn255   2.174   1_455  S
N231        C235   1.349       .  A
N232        N233   1.317       .  A
N232       Mn244   2.194       .  S
N233        C234   1.351       .  A
C234        C702   1.476       .  S
C235        C671   1.477       .  S
N236        N242   1.320       .  A
N236        N237   1.325       .  A
N236       Mn266   2.230       .  S
N237        C245   1.358       .  A
N238        N239   1.313       .  A
N238        N240   1.319       .  A
N238       Mn244   2.183       .  S
N239        C246   1.343       .  A
N240        N241   1.332       .  A
N240       Mn266   2.249       .  S
N241        C246   1.364       .  A
N242        N243   1.316       .  A
N242       Mn244   2.188       .  S
N243        C245   1.346       .  A
Mn244      Cl268   2.495   1_455  S
C245        C302   1.477       .  S
C246        C382   1.493       .  S
N247        N248   1.320       .  A
N247        N253   1.313       .  A
N247       Mn255   2.193       .  S
N248        C256   1.352       .  A
N249        N251   1.312       .  A
N249        N250   1.318       .  A
N249       Mn267   2.195       .  S
N250        C257   1.350       .  A
N251        N252   1.320       .  A
N251       Mn255   2.177       .  S
N252        C257   1.350       .  A
N253        N254   1.318       .  A
N253       Mn267   2.181       .  S
N254        C256   1.350       .  A
Mn255      Cl268   2.587       .  S
C256        C511   1.464       .  S
C257        C542   1.462       .  S
N258        N259   1.332       .  A
N258        N264   1.318       .  A
N258       Mn266   2.250   1_655  S
N259        C269   1.365       .  A
N260        N261   1.317       .  A
N260        N262   1.318       .  A
N260       Mn267   2.191       .  S
N261        C270   1.347       .  A
N262        N263   1.327       .  A
N262       Mn266   2.236   1_655  S
N263        C270   1.358       .  A
N264        N265   1.307       .  A
N264       Mn267   2.164       .  S
N265        C269   1.341       .  A
Mn266      Cl268   2.600   1_455  S
Mn267      Cl268   2.491       .  S
C269        C351   1.488       .  S
C270        C282   1.476       .  S
C271        C272   1.413       .  A
C271        C276   1.401       .  A
C272        C273   1.401       .  A
C272       Br288   1.920       .  S
C273        C274   1.402       .  A
C273        H277   1.084       .  S
C274        C278   1.489       .  S
C274        C275   1.414       .  A
C275        C276   1.404       .  A
C275       Br287   1.919       .  S
C276        H279   1.084       .  S
C278        C280   1.405       .  A
C278        C284   1.411       .  A
C280        C281   1.400       .  A
C280        H285   1.084       .  S
C281        C282   1.407       .  A
C281       Br289   1.916       .  S
C282        C283   1.404       .  A
C283        C284   1.404       .  A
C283        H286   1.084       .  S
C284       Br290   1.918       .  S
C291        C292   1.408       .  A
C291        C296   1.409       .  A
C292        C293   1.408       .  A
C292       Br308   1.915       .  S
C293        C294   1.408       .  A
C293        H297   1.083       .  S
C294        C298   1.481       .  S
C294        C295   1.403       .  A
C295        C296   1.394       .  A
C295       Br307   1.921       .  S
C296        H299   1.084       .  S
C298        C300   1.402       .  A
C298        C304   1.409       .  A
C300        C301   1.399       .  A
C300        H305   1.084       .  S
C301        C302   1.411       .  A
C301       Br309   1.921       .  S
C302        C303   1.405       .  A
C303        C304   1.402       .  A
C303        H306   1.084       .  S
C304       Br310   1.918       .  S
C311        C312   1.413       .  A
C311        C316   1.408       .  A
C312        C313   1.408       .  A
C312       Br328   1.918       .  S
C313        C314   1.408       .  A
C313        H317   1.083       .  S
C314        C318   1.488       .  S
C314        C315   1.406       .  A
C315        C316   1.395       .  A
C315       Br327   1.921       .  S
C316        H319   1.084       .  S
C318        C320   1.400       .  A
C318        C324   1.412       .  A
C320        C321   1.397       .  A
C320        H325   1.084       .  S
C321        C322   1.416       .  A
C321       Br329   1.924       .  S
C322        C323   1.406       .  A
C323        C324   1.408       .  A
C323        H326   1.083       .  S
C324       Br330   1.919       .  S
C331        C332   1.411       .  A
C331        C336   1.403       .  A
C332        C333   1.401       .  A
C332       Br348   1.919       .  S
C333        C334   1.401       .  A
C333        H337   1.084       .  S
C334        C338   1.482       .  S
C334        C335   1.410       .  A
C335        C336   1.401       .  A
C335       Br347   1.919       .  S
C336        H339   1.083       .  S
C338        C340   1.407       .  A
C338        C344   1.405       .  A
C340        C341   1.405       .  A
C340        H345   1.084       .  S
C341        C342   1.404       .  A
C341       Br349   1.914       .  S
C342        C343   1.408       .  A
C343        C344   1.398       .  A
C343        H346   1.084       .  S
C344       Br350   1.920       .  S
C351        C352   1.413       .  A
C351        C356   1.408       .  A
C352        C353   1.411       .  A
C352       Br368   1.917       .  S
C353        C354   1.410       .  A
C353        H357   1.083       .  S
C354        C358   1.487       .  S
C354        C355   1.405       .  A
C355        C356   1.391       .  A
C355       Br367   1.922       .  S
C356        H359   1.084       .  S
C358        C360   1.400       .  A
C358        C364   1.413       .  A
C360        C361   1.394       .  A
C360        H365   1.084       .  S
C361        C362   1.413       .  A
C361       Br369   1.923       .  S
C362        C363   1.406       .  A
C363        C364   1.409       .  A
C363        H366   1.083       .  S
C364       Br370   1.918       .  S
C371        C372   1.413       .  A
C371        C376   1.407       .  A
C372        C373   1.395       .  A
C372       Br388   1.921       .  S
C373        C374   1.402       .  A
C373        H377   1.084       .  S
C374        C378   1.495       .  S
C374        C375   1.416       .  A
C375        C376   1.410       .  A
C375       Br387   1.919       .  S
C376        H379   1.083       .  S
C378        C380   1.401       .  A
C378        C384   1.415       .  A
C380        C381   1.396       .  A
C380        H385   1.084       .  S
C381        C382   1.417       .  A
C381       Br389   1.923       .  S
C382        C383   1.408       .  A
C383        C384   1.411       .  A
C383        H386   1.083       .  S
C384       Br390   1.918       .  S
C391        C392   1.408       .  A
C391        C396   1.405       .  A
C392        C393   1.400       .  A
C392       Br408   1.919       .  S
C393        C394   1.404       .  A
C393        H397   1.084       .  S
C394        C398   1.490       .  S
C394        C395   1.412       .  A
C395        C396   1.405       .  A
C395       Br407   1.919       .  S
C396        H399   1.084       .  S
C398        C400   1.402       .  A
C398        C404   1.414       .  A
C400        C401   1.400       .  A
C400        H405   1.084       .  S
C401        C402   1.413       .  A
C401       Br409   1.922       .  S
C402        C403   1.401       .  A
C403        C404   1.405       .  A
C403        H406   1.083       .  S
C404       Br410   1.918       .  S
C411        C412   1.409       .  A
C411        C416   1.406       .  A
C412        C413   1.399       .  A
C412       Br428   1.919       .  S
C413        C414   1.403       .  A
C413        H417   1.084       .  S
C414        C418   1.489       .  S
C414        C415   1.412       .  A
C415        C416   1.406       .  A
C415       Br427   1.920       .  S
C416        H419   1.084       .  S
C418        C420   1.409       .  A
C418        C424   1.409       .  A
C420        C421   1.404       .  A
C420        H425   1.084       .  S
C421        C422   1.404       .  A
C421       Br429   1.916       .  S
C422        C423   1.405       .  A
C423        C424   1.399       .  A
C423        H426   1.085       .  S
C424       Br430   1.919       .  S
C431        C432   1.408       .  A
C431        C436   1.405       .  A
C432        C433   1.403       .  A
C432       Br448   1.918       .  S
C433        C434   1.407       .  A
C433        H437   1.083       .  S
C434        C438   1.491       .  S
C434        C435   1.409       .  A
C435        C436   1.402       .  A
C435       Br447   1.915       .  S
C436        H439   1.084       .  S
C438        C440   1.404       .  A
C438        C444   1.414       .  A
C440        C441   1.400       .  A
C440        H445   1.084       .  S
C441        C442   1.409       .  A
C441       Br449   1.919       .  S
C442        C443   1.405       .  A
C443        C444   1.405       .  A
C443        H446   1.084       .  S
C444       Br450   1.921       .  S
C451        C452   1.411       .  A
C451        C456   1.404       .  A
C452        C453   1.403       .  A
C452       Br468   1.919       .  S
C453        C454   1.405       .  A
C453        H457   1.084       .  S
C454        C458   1.488       .  S
C454        C455   1.410       .  A
C455        C456   1.401       .  A
C455       Br467   1.919       .  S
C456        H459   1.083       .  S
C458        C460   1.406       .  A
C458        C464   1.409       .  A
C460        C461   1.408       .  A
C460        H465   1.084       .  S
C461        C462   1.415       .  A
C461       Br469   1.919       .  S
C462        C463   1.404       .  A
C463        C464   1.397       .  A
C463        H466   1.084       .  S
C464       Br470   1.921       .  S
C471        C472   1.413       .  A
C471        C476   1.403       .  A
C472        C473   1.401       .  A
C472       Br488   1.919       .  S
C473        C474   1.403       .  A
C473        H477   1.082       .  S
C474        C478   1.480       .  S
C474        C475   1.410       .  A
C475        C476   1.396       .  A
C475       Br487   1.921       .  S
C476        H479   1.084       .  S
C478        C480   1.406       .  A
C478        C484   1.406       .  A
C480        C481   1.401       .  A
C480        H485   1.083       .  S
C481        C482   1.408       .  A
C481       Br489   1.918       .  S
C482        C483   1.405       .  A
C483        C484   1.397       .  A
C483        H486   1.083       .  S
C484       Br490   1.919       .  S
C491        C492   1.410       .  A
C491        C496   1.405       .  A
C492        C493   1.402       .  A
C492       Br508   1.919       .  S
C493        C494   1.405       .  A
C493        H497   1.083       .  S
C494        C498   1.486       .  S
C494        C495   1.408       .  A
C495        C496   1.402       .  A
C495       Br507   1.918       .  S
C496        H499   1.083       .  S
C498        C500   1.404       .  A
C498        C504   1.412       .  A
C500        C501   1.400       .  A
C500        H505   1.084       .  S
C501        C502   1.408       .  A
C501       Br509   1.920       .  S
C502        C503   1.403       .  A
C503        C504   1.401       .  A
C503        H506   1.084       .  S
C504       Br510   1.921       .  S
C511        C512   1.406       .  A
C511        C516   1.404       .  A
C512        C513   1.396       .  A
C512       Br528   1.918       .  S
C513        C514   1.402       .  A
C513        H517   1.084       .  S
C514        C518   1.467       .  S
C514        C515   1.404       .  A
C515        C516   1.395       .  A
C515       Br527   1.918       .  S
C516        H519   1.083       .  S
C518        C520   1.399       .  A
C518        C524   1.404       .  A
C520        C521   1.397       .  A
C520        H525   1.084       .  S
C521        C522   1.415       .  A
C521       Br529   1.920       .  S
C522        C523   1.407       .  A
C523        C524   1.394       .  A
C523        H526   1.083       .  S
C524       Br530   1.920       .  S
C531        C532   1.418       .  A
C531        C536   1.407       .  A
C532        C533   1.395       .  A
C532       Br548   1.913       .  S
C533        C534   1.396       .  A
C533        H537   1.083       .  S
C534        C538   1.472       .  S
C534        C535   1.406       .  A
C535        C536   1.396       .  A
C535       Br547   1.920       .  S
C536        H539   1.083       .  S
C538        C540   1.400       .  A
C538        C544   1.410       .  A
C540        C541   1.392       .  A
C540        H545   1.083       .  S
C541        C542   1.407       .  A
C541       Br549   1.921       .  S
C542        C543   1.400       .  A
C543        C544   1.399       .  A
C543        H546   1.083       .  S
C544       Br550   1.917       .  S
C551        C552   1.416       .  A
C551        C556   1.408       .  A
C552        C553   1.398       .  A
C552       Br568   1.922       .  S
C553        C554   1.399       .  A
C553        H557   1.084       .  S
C554        C558   1.471       .  S
C554        C555   1.404       .  A
C555        C556   1.397       .  A
C555       Br567   1.920       .  S
C556        H559   1.083       .  S
C558        C560   1.402       .  A
C558        C564   1.405       .  A
C560        C561   1.398       .  A
C560        H565   1.083       .  S
C561        C562   1.405       .  A
C561       Br569   1.917       .  S
C562        C563   1.402       .  A
C563        C564   1.396       .  A
C563        H566   1.084       .  S
C564       Br570   1.914       .  S
C571        C572   1.407       .  A
C571        C576   1.400       .  A
C572        C573   1.394       .  A
C572       Br588   1.921       .  S
C573        C574   1.400       .  A
C573        H577   1.078       .  S
C574        C578   1.470       .  S
C574        C575   1.408       .  A
C575        C576   1.399       .  A
C575       Br587   1.918       .  S
C576        H579   1.081       .  S
C578        C580   1.398       .  A
C578        C584   1.404       .  A
C580        C581   1.396       .  A
C580        H585   1.084       .  S
C581        C582   1.417       .  A
C581       Br589   1.922       .  S
C582        C583   1.408       .  A
C583        C584   1.395       .  A
C583        H586   1.083       .  S
C584       Br590   1.917       .  S
C591        C592   1.415       .  A
C591        C596   1.407       .  A
C592        C593   1.406       .  A
C592       Br608   1.918       .  S
C593        C594   1.407       .  A
C593        H597   1.083       .  S
C594        C598   1.501       .  S
C594        C595   1.413       .  A
C595        C596   1.404       .  A
C595       Br607   1.920       .  S
C596        H599   1.083       .  S
C598        C600   1.403       .  A
C598        C604   1.416       .  A
C600        C601   1.400       .  A
C600        H605   1.084       .  S
C601        C602   1.415       .  A
C601       Br609   1.922       .  S
C602        C603   1.407       .  A
C603        C604   1.411       .  A
C603        H606   1.084       .  S
C604       Br610   1.918       .  S
C611        C612   1.413       .  A
C611        C616   1.403       .  A
C612        C613   1.390       .  A
C612       Br628   1.919       .  S
C613        C614   1.398       .  A
C613        H617   1.084       .  S
C614        C618   1.488       .  S
C614        C615   1.416       .  A
C615        C616   1.409       .  A
C615       Br627   1.918       .  S
C616        H619   1.084       .  S
C618        C620   1.401       .  A
C618        C624   1.412       .  A
C620        C621   1.399       .  A
C620        H625   1.083       .  S
C621        C622   1.420       .  A
C621       Br629   1.922       .  S
C622        C623   1.407       .  A
C623        C624   1.401       .  A
C623        H626   1.083       .  S
C624       Br630   1.921       .  S
C631        C632   1.406       .  A
C631        C636   1.406       .  A
C632        C633   1.402       .  A
C632       Br648   1.915       .  S
C633        C634   1.405       .  A
C633        H637   1.084       .  S
C634        C638   1.483       .  S
C634        C635   1.407       .  A
C635        C636   1.401       .  A
C635       Br647   1.918       .  S
C636        H639   1.084       .  S
C638        C640   1.403       .  A
C638        C644   1.408       .  A
C640        C641   1.402       .  A
C640        H645   1.082       .  S
C641        C642   1.414       .  A
C641       Br649   1.919       .  S
C642        C643   1.406       .  A
C643        C644   1.398       .  A
C643        H646   1.084       .  S
C644       Br650   1.920       .  S
C651        C652   1.408       .  A
C651        C656   1.403       .  A
C652        C653   1.401       .  A
C652       Br668   1.916       .  S
C653        C654   1.404       .  A
C653        H657   1.084       .  S
C654        C658   1.491       .  S
C654        C655   1.414       .  A
C655        C656   1.405       .  A
C655       Br667   1.918       .  S
C656        H659   1.084       .  S
C658        C660   1.407       .  A
C658        C664   1.411       .  A
C660        C661   1.403       .  A
C660        H665   1.084       .  S
C661        C662   1.406       .  A
C661       Br669   1.917       .  S
C662        C663   1.405       .  A
C663        C664   1.404       .  A
C663        H666   1.084       .  S
C664       Br670   1.918       .  S
C671        C672   1.419       .  A
C671        C676   1.407       .  A
C672        C673   1.393       .  A
C672       Br688   1.920       .  S
C673        C674   1.396       .  A
C673        H677   1.085       .  S
C674        C678   1.461       .  S
C674        C675   1.402       .  A
C675        C676   1.393       .  A
C675       Br687   1.919       .  S
C676        H679   1.083       .  S
C678        C680   1.398       .  A
C678        C684   1.407       .  A
C680        C681   1.392       .  A
C680        H685   1.083       .  S
C681        C682   1.408       .  A
C681       Br689   1.921       .  S
C682        C683   1.397       .  A
C683        C684   1.395       .  A
C683        H686   1.083       .  S
C684       Br690   1.918       .  S
C691        C692   1.410       .  A
C691        C696   1.403       .  A
C692        C693   1.398       .  A
C692       Br708   1.918       .  S
C693        C694   1.401       .  A
C693        H697   1.084       .  S
C694        C698   1.471       .  S
C694        C695   1.407       .  A
C695        C696   1.396       .  A
C695       Br707   1.919       .  S
C696        H699   1.084       .  S
C698        C700   1.403       .  A
C698        C704   1.404       .  A
C700        C701   1.402       .  A
C700        H705   1.083       .  S
C701        C702   1.412       .  A
C701       Br709   1.919       .  S
C702        C703   1.404       .  A
C703        C704   1.392       .  A
C703        H706   1.082       .  S
C704       Br710   1.921       .  S
C711        C712   1.412       .  A
C711        C716   1.406       .  A
C712        C713   1.400       .  A
C712       Br728   1.919       .  S
C713        C714   1.403       .  A
C713        H717   1.082       .  S
C714        C718   1.477       .  S
C714        C715   1.406       .  A
C715        C716   1.394       .  A
C715       Br727   1.920       .  S
C716        H719   1.083       .  S
C718        C720   1.403       .  A
C718        C724   1.408       .  A
C720        C721   1.402       .  A
C720        H725   1.084       .  S
C721        C722   1.412       .  A
C721       Br729   1.918       .  S
C722        C723   1.403       .  A
C723        C724   1.395       .  A
C723        H726   1.084       .  S
C724       Br730   1.922       .  S
C731        C732   1.416       .  A
C731        C736   1.408       .  A
C732        C733   1.395       .  A
C732       Br748   1.917       .  S
C733        C734   1.396       .  A
C733        H737   1.081       .  S
C734        C738   1.470       .  S
C734        C735   1.403       .  A
C735        C736   1.399       .  A
C735       Br747   1.918       .  S
C736        H739   1.082       .  S
C738        C740   1.400       .  A
C738        C744   1.408       .  A
C740        C741   1.397       .  A
C740        H745   1.083       .  S
C741        C742   1.409       .  A
C741       Br749   1.920       .  S
C742        C743   1.399       .  A
C743        C744   1.397       .  A
C743        H746   1.084       .  S
C744       Br750   1.918       .  S
