geometry optimzed in LAMMPS
_audit_creation_date              2020-11-30 
_audit_creation_method            'lammps2cif' 
_symmetry_space_group_name_H-M    'P1' 
_symmetry_Int_Tables_number       1 
_symmetry_cell_setting            triclinic 
loop_ 
_symmetry_equiv_pos_as_xyz 
  x,y,z 
_cell_length_a                    36.02492847943412 
_cell_length_b                    36.034754483823306 
_cell_length_c                    60.74488876837562 
_cell_angle_alpha                 89.74180030560221 
_cell_angle_beta                  89.90750498709208 
_cell_angle_gamma                 90.09563936990233 
loop_ 
_atom_site_label 
_atom_site_type_symbol 
_atom_site_fract_x 
_atom_site_fract_y 
_atom_site_fract_z 
_atom_site_charge 
N1          N  0.00798487  0.69263732  0.03499751    -0.27650
N2          N  0.01342841  0.65912686  0.04343129    -0.35510
C3          C  0.01230346  0.66066431  0.06538606     0.00690
C4          C  0.00526403  0.69659707  0.07150403     0.06720
C5          C  0.00320522  0.71656198  0.05188972    -0.06380
H6          H  0.01466999  0.63676657  0.07613524     0.07380
H7          H  0.99690834  0.74573911  0.05003852     0.08580
Cu8        Cu  0.01568327  0.60965966  0.02709322     0.44170
Cu9        Cu  0.00401888  0.70236726  0.00078383     0.41990
Cu10       Cu  0.99032966  0.61253739  0.97347647     0.43880
N11         N  0.00586288  0.56165232  0.01021457    -0.35040
N12         N  0.99649019  0.56287320  0.98929956    -0.29290
C13         C  0.99085425  0.52830080  0.98195262    -0.05390
C14         C  0.99633861  0.50430215  0.99940211     0.06830
C15         C  0.00573731  0.52624666  0.01713671     0.00620
H16         H  0.98227988  0.52135136  0.96541066     0.08270
H17         H  0.01169119  0.51729193  0.03378733     0.07350
N18         N  0.99202683  0.66264724  0.95773801    -0.36480
N19         N  0.99845060  0.69560482  0.96645844    -0.28660
C20         C  0.00212955  0.72043499  0.94976204    -0.03900
C21         C  0.99771051  0.70162765  0.92991963     0.04710
C22         C  0.99122040  0.66534947  0.93584665     0.02800
H23         H  0.00908770  0.74939967  0.95183849     0.07910
H24         H  0.98783883  0.64195516  0.92492587     0.06740
N25         N  0.71331030  0.98295750  0.96642069    -0.27650
N26         N  0.68048760  0.98690561  0.95695309    -0.35510
C27         C  0.68491958  0.98914571  0.93509886     0.00690
C28         C  0.72223739  0.98671826  0.93032541     0.06720
C29         C  0.73958580  0.98228681  0.95054326    -0.06380
H30         H  0.66234808  0.99052543  0.92339076     0.07380
H31         H  0.76877071  0.97727298  0.95342587     0.08580
Cu32       Cu  0.62973218  0.98467966  0.97262193     0.44170
Cu33       Cu  0.71973273  0.97634613  0.00041529     0.41990
Cu34       Cu  0.63063740  0.95968567  0.02817986     0.43880
N35         N  0.58149554  0.97729098  0.99037867    -0.35040
N36         N  0.58183696  0.96739982  0.01130197    -0.29290
C37         C  0.54677310  0.96504356  0.01874601    -0.05390
C38         C  0.52329816  0.97381746  0.00153352     0.06830
C39         C  0.54618730  0.98140500  0.98377336     0.00620
H40         H  0.53906416  0.95784669  0.03545065     0.08270
H41         H  0.53790102  0.98947390  0.96732324     0.07350
N42         N  0.68117553  0.96194779  0.04379810    -0.36480
N43         N  0.71351804  0.96945802  0.03441967    -0.28660
C44         C  0.73905237  0.97421918  0.05041658    -0.03900
C45         C  0.72175759  0.96877372  0.07060420     0.04710
C46         C  0.68520974  0.96137922  0.06569188     0.02800
H47         H  0.76737625  0.98305180  0.04762544     0.07910
H48         H  0.66255491  0.95844032  0.07728596     0.06740
N49         N  0.79357938  0.48021549  0.53576609    -0.27650
N50         N  0.82696722  0.47979867  0.54482978    -0.35510
C51         C  0.82384230  0.47802705  0.56671590     0.00690
C52         C  0.78681216  0.47675837  0.57211190     0.06720
C53         C  0.76808308  0.47881346  0.55213746    -0.06380
H54         H  0.84713767  0.47738401  0.57792926     0.07380
H55         H  0.73835609  0.47841745  0.54969706     0.08580
Cu56       Cu  0.87721519  0.47945967  0.52910409     0.44170
Cu57       Cu  0.78584859  0.48114121  0.50142868     0.41990
Cu58       Cu  0.87633627  0.46732239  0.47372346     0.43880
N59         N  0.92578666  0.47520408  0.51184760    -0.35040
N60         N  0.92542932  0.47029680  0.49039901    -0.29290
C61         C  0.96042061  0.46917508  0.48286375    -0.05390
C62         C  0.98382939  0.47335682  0.50066914     0.06830
C63         C  0.96103132  0.47705520  0.51883367     0.00620
H64         H  0.96810950  0.46568491  0.46577415     0.08270
H65         H  0.96930747  0.48103286  0.53577405     0.07350
N66         N  0.82675082  0.47467284  0.45805503    -0.36480
N67         N  0.79384830  0.48059205  0.46709943    -0.28660
C68         C  0.76931792  0.48733332  0.45072154    -0.03900
C69         C  0.78834267  0.48622370  0.43079037     0.04710
C70         C  0.82429232  0.47752311  0.43618818     0.02800
H71         H  0.74026767  0.49366711  0.45314434     0.07910
H72         H  0.84745602  0.47422640  0.42501931     0.06740
N73         N  0.49775060  0.77417816  0.53450894    -0.27650
N74         N  0.49693354  0.80781255  0.54312555    -0.35510
C75         C  0.49631564  0.80544438  0.56502476     0.00690
C76         C  0.49645871  0.76862797  0.57106290     0.06720
C77         C  0.49737749  0.74922014  0.55126069    -0.06380
H78         H  0.49569243  0.82919877  0.57584707     0.07380
H79         H  0.49718902  0.71944211  0.54918796     0.08580
Cu80       Cu  0.49666534  0.85770162  0.52706354     0.44170
Cu81       Cu  0.49971366  0.76603375  0.50021458     0.41990
Cu82       Cu  0.51713833  0.85717117  0.47298915     0.43880
N83         N  0.50335540  0.90653030  0.51037270    -0.35040
N84         N  0.51202777  0.90638944  0.48933543    -0.29290
C85         C  0.51634550  0.94144320  0.48224597    -0.05390
C86         C  0.51023249  0.96461241  0.49994597     0.06830
C87         C  0.50199407  0.94162777  0.51755132     0.00620
H88         H  0.52383973  0.94931914  0.46561467     0.08270
H89         H  0.49616310  0.94964046  0.53434782     0.07350
N90         N  0.51263337  0.80725920  0.45728669    -0.36480
N91         N  0.50493365  0.77439489  0.46599684    -0.28660
C92         C  0.50034933  0.74999831  0.44933116    -0.03900
C93         C  0.50560635  0.76882404  0.42947584     0.04710
C94         C  0.51338184  0.80480022  0.43537975     0.02800
H95         H  0.49251621  0.72123654  0.45147318     0.07910
H96         H  0.51809528  0.82813459  0.42445292     0.06740
N97         N  0.50734644  0.19318962  0.46589270    -0.27650
N98         N  0.51875278  0.16127075  0.45753984    -0.35510
C99         C  0.51810301  0.16300865  0.43557213     0.00690
C100        C  0.50507884  0.19727156  0.42936773     0.06720
C101        C  0.49907999  0.21622432  0.44894539    -0.06380
H102        H  0.52508115  0.14013194  0.42487468     0.07380
H103        H  0.48804568  0.24394036  0.45071816     0.08580
Cu104      Cu  0.52832407  0.11240027  0.47382108     0.44170
Cu105      Cu  0.50133373  0.20210182  0.50002943     0.41990
Cu106      Cu  0.50842760  0.11177726  0.52792335     0.43880
N107        N  0.52179801  0.06312179  0.49022010    -0.35040
N108        N  0.51324958  0.06299759  0.51127437    -0.29290
C109        C  0.50791490  0.02796851  0.51811208    -0.05390
C110        C  0.51334675  0.00500755  0.50025592     0.06830
C111        C  0.52208405  0.02812623  0.48278042     0.00620
H112        H  0.50028613  0.01998575  0.53470725     0.08270
H113        H  0.52756757  0.02027762  0.46591789     0.07350
N114        N  0.50472054  0.16169905  0.54348104    -0.36480
N115        N  0.50076865  0.19494165  0.53450539    -0.28660
C116        C  0.49712767  0.21987923  0.55101849    -0.03900
C117        C  0.49925991  0.20089042  0.57107207     0.04710
C118        C  0.50427177  0.16432843  0.56534269     0.02800
H119        H  0.49253547  0.24925455  0.54860809     0.07910
H120        H  0.50693584  0.14078951  0.57634435     0.06740
N121        N  0.21519148  0.47326139  0.53405668    -0.27650
N122        N  0.18204499  0.47297566  0.54348667    -0.35510
C123        C  0.18574060  0.47582727  0.56529188     0.00690
C124        C  0.22289151  0.47854920  0.57016088     0.06720
C125        C  0.24110581  0.47635644  0.55003963    -0.06380
H126        H  0.16277574  0.47712647  0.57676140     0.07380
H127        H  0.27066546  0.47845662  0.54717902     0.08580
Cu128      Cu  0.13154614  0.47238457  0.52806352     0.44170
Cu129      Cu  0.22207008  0.47214461  0.49973674     0.41990
Cu130      Cu  0.13098492  0.46975568  0.47170911     0.43880
N131        N  0.08272911  0.47322415  0.51090083    -0.35040
N132        N  0.08245126  0.47183793  0.48924761    -0.29290
C133        C  0.04721527  0.47200522  0.48213179    -0.05390
C134        C  0.02435840  0.47359979  0.50038504     0.06830
C135        C  0.04770893  0.47444076  0.51838158     0.00620
H136        H  0.03897695  0.47085094  0.46502635     0.08270
H137        H  0.03994631  0.47534412  0.53558368     0.07350
N138        N  0.18147585  0.47156117  0.45614927    -0.36480
N139        N  0.21465972  0.47278318  0.46545614    -0.28660
C140        C  0.24039906  0.47646430  0.44935888    -0.03900
C141        C  0.22205441  0.47812971  0.42929068     0.04710
C142        C  0.18500682  0.47444444  0.43430798     0.02800
H143        H  0.26991996  0.47926328  0.45209657     0.07910
H144        H  0.16196594  0.47499329  0.42290491     0.06740
C145        C  0.74325600  0.01718363  0.80294424     0.02770
C146        C  0.74470978  0.01485119  0.82605635    -0.13380
C147        C  0.74828554  0.98039608  0.83692010     0.00270
C148        C  0.75214932  0.94832434  0.82401651    -0.11910
C149        C  0.74868432  0.95000847  0.80103449     0.02760
C150        C  0.74501079  0.98446172  0.79052255    -0.11330
H151        H  0.74258079  0.04008557  0.83554959     0.08360
H152        H  0.75695650  0.92167459  0.83175872     0.05890
H153        H  0.74267697  0.98570346  0.77274459     0.05730
O154        O  0.68595440  0.24038126  0.75648667    -0.73300
O155        O  0.79136202  0.24828788  0.77818646    -0.74280
O156        O  0.74011661  0.29723189  0.75714960    -0.62900
O157        O  0.73650553  0.19122543  0.77769552    -0.71310
O158        O  0.75731054  0.17234113  0.74532520    -0.70870
O159        O  0.76107832  0.27838211  0.72465502    -0.62120
O160        O  0.81201809  0.22891300  0.74579244    -0.74630
O161        O  0.70703681  0.22145032  0.72412843    -0.73410
Cu162      Cu  0.73787146  0.24491572  0.76854305     1.04560
Cu163      Cu  0.76015746  0.22467286  0.73385855     1.04330
C164        C  0.67991944  0.22971548  0.73676216     0.92890
C165        C  0.81828696  0.23961515  0.76546199     0.92030
C166        C  0.75011891  0.30427849  0.73740994     0.84180
C167        C  0.74625669  0.16495997  0.76484408     0.90450
O168        O  0.73802279  0.77970556  0.77452437    -0.73300
O169        O  0.74458970  0.67259473  0.75646142    -0.74280
O170        O  0.79339659  0.72457846  0.77688640    -0.62900
O171        O  0.68887893  0.72809358  0.75452775    -0.71310
O172        O  0.70944054  0.74852733  0.72221541    -0.70870
O173        O  0.81479389  0.73970961  0.74370393    -0.62120
O174        O  0.76274185  0.69105557  0.72318524    -0.74630
O175        O  0.76140911  0.79722135  0.74232332    -0.73410
Cu176      Cu  0.74054589  0.72557784  0.76675714     1.04560
Cu177      Cu  0.76286336  0.74466037  0.73169824     1.04330
C178        C  0.74940815  0.80528111  0.76147707     0.92890
C179        C  0.75375907  0.66521847  0.73662814     0.92030
C180        C  0.82042799  0.73196190  0.76397298     0.84180
C181        C  0.68257309  0.73940688  0.73493517     0.90450
C182        C  0.03401896  0.73033995  0.80060258     0.02770
C183        C  0.03584602  0.72969892  0.82365622    -0.13380
C184        C  0.00332704  0.72896316  0.83637395     0.00270
C185        C  0.96878248  0.72999405  0.82576094    -0.11910
C186        C  0.96657543  0.73093160  0.80266133     0.02760
C187        C  0.99940109  0.73165156  0.79013335    -0.11330
H188        H  0.06267850  0.72889951  0.83168910     0.08360
H189        H  0.94353508  0.72872972  0.83546376     0.05890
H190        H  0.99802283  0.73246493  0.77231601     0.05730
O191        O  0.24407288  0.79664348  0.74345100    -0.73300
O192        O  0.23869780  0.69041077  0.72372073    -0.74280
O193        O  0.18788294  0.74188130  0.74276397    -0.62900
O194        O  0.29503238  0.74581964  0.72428780    -0.71310
O195        O  0.31216419  0.72549725  0.75729974    -0.70870
O196        O  0.20502219  0.72146408  0.77576636    -0.62120
O197        O  0.25534458  0.67069736  0.75677022    -0.74630
O198        O  0.26035674  0.77684841  0.77673889    -0.73410
Cu199      Cu  0.24091267  0.74429145  0.73236964     1.04560
Cu200      Cu  0.25894666  0.72303788  0.76779318     1.04330
C201        C  0.25207261  0.80328653  0.76352098     0.92890
C202        C  0.24612594  0.66367348  0.73695665     0.92030
C203        C  0.17970008  0.73145190  0.76230658     0.84180
C204        C  0.32040242  0.73589778  0.73774150     0.90450
C205        C  0.03242531  0.22979122  0.80243365     0.02770
C206        C  0.99800311  0.23191820  0.79169857    -0.13380
C207        C  0.96492933  0.23335529  0.80402896     0.00270
C208        C  0.96673253  0.23382526  0.82715674    -0.11910
C209        C  0.00099246  0.23075382  0.83805206     0.02760
C210        C  0.03353153  0.22820118  0.82545625    -0.11330
H211        H  0.99698078  0.23336086  0.77388623     0.08360
H212        H  0.94143759  0.23699522  0.83661358     0.05890
H213        H  0.06020202  0.22625508  0.83362088     0.05730
O214        O  0.18611868  0.22547085  0.74426335    -0.73300
O215        O  0.29321342  0.22190455  0.72516663    -0.74280
O216        O  0.24325202  0.17131144  0.74594509    -0.62900
O217        O  0.23565182  0.27590992  0.72297247    -0.71310
O218        O  0.25423655  0.29767591  0.75528981    -0.70870
O219        O  0.25997825  0.19292067  0.77861898    -0.62120
O220        O  0.31085849  0.24294261  0.75779634    -0.74630
O221        O  0.20425947  0.24787109  0.77644814    -0.73410
Cu222      Cu  0.23902462  0.22289816  0.73343091     1.04560
Cu223      Cu  0.25798922  0.24607157  0.76816080     1.04330
C224        C  0.17837795  0.23756786  0.76348965     0.92890
C225        C  0.31886156  0.23218986  0.73836768     0.92030
C226        C  0.25178740  0.16568291  0.76607869     0.84180
C227        C  0.24363488  0.30319117  0.73546954     0.90450
C228        C  0.25466444  0.01651625  0.80274848     0.02770
C229        C  0.24629672  0.98362237  0.79123177    -0.13380
C230        C  0.24642595  0.94902325  0.80217008     0.00270
C231        C  0.25322001  0.94788130  0.82492478    -0.11910
C232        C  0.26105253  0.98025046  0.83667532     0.02760
C233        C  0.26254197  0.01417758  0.82537510    -0.11330
H234        H  0.23948854  0.98481625  0.77389079     0.08360
H235        H  0.25281416  0.92153490  0.83352848     0.05890
H236        H  0.26966101  0.03908367  0.83436922     0.05730
C237        C  0.24465114  0.51726837  0.69756432     0.02770
C238        C  0.25257071  0.51719597  0.67491395    -0.13380
C239        C  0.25204547  0.48416905  0.66272618     0.00270
C240        C  0.24717786  0.45040049  0.67399149    -0.11910
C241        C  0.24330503  0.44968893  0.69695887     0.02760
C242        C  0.24087493  0.48312031  0.70866145    -0.11330
H243        H  0.25757905  0.54330573  0.66651270     0.08360
H244        H  0.24602480  0.42456195  0.66500027     0.05890
H245        H  0.23625285  0.48242703  0.72628781     0.05730
C246        C  0.53290200  0.23379329  0.69820544     0.02770
C247        C  0.53068618  0.23324687  0.67508258    -0.13380
C248        C  0.49623282  0.23081156  0.66447899     0.00270
C249        C  0.46367866  0.23000901  0.67716572    -0.11910
C250        C  0.46533250  0.23018002  0.70024236     0.02760
C251        C  0.49999157  0.23224218  0.71072250    -0.11330
H252        H  0.55591264  0.23333936  0.66533696     0.08360
H253        H  0.43696674  0.22819940  0.66904967     0.05890
H254        H  0.50136220  0.23152722  0.72853805     0.05730
C255        C  0.53465927  0.73731440  0.69812061     0.02770
C256        C  0.53201488  0.73902165  0.67505429    -0.13380
C257        C  0.49725663  0.73944964  0.66465068     0.00270
C258        C  0.46503714  0.73736785  0.67758860    -0.11910
C259        C  0.46721039  0.73733281  0.70059999     0.02760
C260        C  0.50204172  0.73678849  0.71088883    -0.11330
H261        H  0.55709757  0.74075055  0.66522890     0.08360
H262        H  0.43802872  0.73702578  0.66975989     0.05890
H263        H  0.50375175  0.73677983  0.72869901     0.05730
C264        C  0.74772702  0.51883717  0.69872888     0.02770
C265        C  0.75143148  0.51739245  0.67564523    -0.13380
C266        C  0.75018347  0.48331321  0.66450657     0.00270
C267        C  0.74675428  0.45056607  0.67691090    -0.11910
C268        C  0.74571011  0.45128523  0.69995117     0.02760
C269        C  0.74555193  0.48555465  0.71085355    -0.11330
H270        H  0.75577704  0.54285919  0.66646463     0.08360
H271        H  0.74613337  0.42401953  0.66860512     0.05890
H272        H  0.74358144  0.48629557  0.72864956     0.05730
N273        N  0.29403062  0.98376031  0.96638701    -0.27650
N274        N  0.32720297  0.99013417  0.95780272    -0.35510
C275        C  0.32471198  0.99148822  0.93585055     0.00690
C276        C  0.28827233  0.98587319  0.93001592     0.06720
C277        C  0.26936878  0.98069427  0.94975876    -0.06380
H278        H  0.34815199  0.99464611  0.92484227     0.07380
H279        H  0.24044356  0.97345344  0.95186087     0.08580
Cu280      Cu  0.37640024  0.99125928  0.97465028     0.44170
Cu281      Cu  0.28586853  0.97715646  0.00033115     0.41990
Cu282      Cu  0.37499290  0.96335548  0.02942339     0.43880
N283        N  0.42440847  0.98224638  0.99188113    -0.35040
N284        N  0.42416755  0.97113619  0.01258325    -0.29290
C285        C  0.45935446  0.96664819  0.01941868    -0.05390
C286        C  0.48265267  0.97518438  0.00196971     0.06830
C287        C  0.45958384  0.98493468  0.98477087     0.00620
H288        H  0.46728694  0.95766418  0.03576479     0.08270
H289        H  0.46763507  0.99310003  0.96827891     0.07350
N290        N  0.32350208  0.96478623  0.04431017    -0.36480
N291        N  0.29132501  0.97116422  0.03450106    -0.28660
C292        C  0.26505498  0.97546614  0.05017853    -0.03900
C293        C  0.28164144  0.97088895  0.07061933     0.04710
C294        C  0.31856630  0.96448294  0.06616006     0.02800
H295        H  0.23662259  0.98341531  0.04698611     0.07910
H296        H  0.34081236  0.96231376  0.07804397     0.06740
N297        N  0.99109640  0.27579276  0.03497813    -0.27650
N298        N  0.98337295  0.30858785  0.04355411    -0.35510
C299        C  0.98491983  0.30661068  0.06549371     0.00690
C300        C  0.99485637  0.27115649  0.07141382     0.06720
C301        C  0.99795863  0.25188096  0.05171503    -0.06380
H302        H  0.98074076  0.32997107  0.07633388     0.07380
H303        H  0.00620306  0.22325906  0.04969217     0.08580
Cu304      Cu  0.97766806  0.35780577  0.02709330     0.44170
Cu305      Cu  0.99449484  0.26734957  0.00076601     0.41990
Cu306      Cu  0.98940834  0.35736077  0.97138755     0.43880
N307        N  0.98356240  0.40630963  0.00989554    -0.35040
N308        N  0.98738099  0.40622711  0.98834288    -0.29290
C309        C  0.99199859  0.44117411  0.98114219    -0.05390
C310        C  0.99153131  0.46412871  0.99927834     0.06830
C311        C  0.98623222  0.44122495  0.01728224     0.00620
H312        H  0.99650421  0.44906223  0.96413576     0.08270
H313        H  0.98469602  0.44919356  0.03441203     0.07350
N314        N  0.99462710  0.30669859  0.95660233    -0.36480
N315        N  0.99649047  0.27379522  0.96632125    -0.28660
C316        C  0.00066963  0.24779559  0.95050425    -0.03900
C317        C  0.00209229  0.26574582  0.93021365     0.04710
C318        C  0.99774332  0.30277637  0.93482148     0.02800
H319        H  0.00334764  0.21833424  0.95354714     0.07910
H320        H  0.99717038  0.32551656  0.92313562     0.06740
C321        C  0.99968362  0.72407535  0.16474807     0.02770
C322        C  0.96620393  0.72557269  0.17642531    -0.13380
C323        C  0.96542773  0.73113377  0.19932352     0.00270
C324        C  0.99931426  0.73162238  0.21086775    -0.11910
C325        C  0.03312978  0.72692551  0.19956213     0.02760
C326        C  0.03308348  0.72408240  0.17649593    -0.11330
H327        H  0.94042757  0.72287785  0.16746010     0.08360
H328        H  0.99949246  0.73513576  0.22856651     0.05890
H329        H  0.05912955  0.72130290  0.16772454     0.05730
O330        O  0.26066819  0.77761870  0.22209154    -0.73300
O331        O  0.25833342  0.67276988  0.24423375    -0.74280
O332        O  0.20620094  0.72114802  0.22391645    -0.62900
O333        O  0.31284229  0.72921974  0.24278882    -0.71310
O334        O  0.29396492  0.74907545  0.27545716    -0.70870
O335        O  0.18770643  0.74213477  0.25641384    -0.62120
O336        O  0.23922519  0.69260238  0.27683106    -0.74630
O337        O  0.24300666  0.79820448  0.25487213    -0.73410
Cu338      Cu  0.26013539  0.72451364  0.23212071     1.04560
Cu339      Cu  0.24033723  0.74616381  0.26705310     1.04330
C340        C  0.25177482  0.80434408  0.23478660     0.92890
C341        C  0.24898528  0.66608742  0.26413480     0.92030
C342        C  0.18020491  0.73106702  0.23698049     0.84180
C343        C  0.32013951  0.74031514  0.26226776     0.90450
O344        O  0.79147355  0.72189357  0.22386163    -0.73300
O345        O  0.68516445  0.72800809  0.24311700    -0.74280
O346        O  0.73678497  0.77819508  0.22288786    -0.62900
O347        O  0.74014233  0.67216623  0.24417660    -0.71310
O348        O  0.75657412  0.69221609  0.27728097    -0.70870
O349        O  0.75581261  0.79803056  0.25553762    -0.62120
O350        O  0.70328658  0.74973809  0.27553990    -0.74630
O351        O  0.81037021  0.74005652  0.25686471    -0.73410
Cu352      Cu  0.73782326  0.72443456  0.23236513     1.04560
Cu353      Cu  0.75725781  0.74566583  0.26745991     1.04330
C354        C  0.81767495  0.72993065  0.23716535     0.92890
C355        C  0.67750272  0.73968994  0.26240681     0.92030
C356        C  0.74596419  0.80472020  0.23572062     0.84180
C357        C  0.74768580  0.66572459  0.26437365     0.90450
C358        C  0.74519832  0.02021138  0.19864453     0.02770
C359        C  0.74647057  0.02068434  0.17553827    -0.13380
C360        C  0.74171748  0.98790515  0.16348359     0.00270
C361        C  0.73741835  0.95436430  0.17507734    -0.11910
C362        C  0.73973394  0.95283999  0.19818503     0.02760
C363        C  0.74366780  0.98615436  0.20994145    -0.11330
H364        H  0.75075922  0.04683996  0.16708487     0.08360
H365        H  0.73289289  0.92893781  0.16600993     0.05890
H366        H  0.74530545  0.98576554  0.22773800     0.05730
O367        O  0.73753328  0.19293412  0.22373292    -0.73300
O368        O  0.74188108  0.29921926  0.24400016    -0.74280
O369        O  0.79273335  0.24910663  0.22333958    -0.62900
O370        O  0.68670057  0.24312004  0.24409714    -0.71310
O371        O  0.70603883  0.22188631  0.27645464    -0.70870
O372        O  0.81223408  0.23037568  0.25623635    -0.62120
O373        O  0.76011675  0.27898822  0.27679745    -0.74630
O374        O  0.75811714  0.17352873  0.25620491    -0.73410
Cu375      Cu  0.73908202  0.24676851  0.23262157     1.04560
Cu376      Cu  0.75982317  0.22562382  0.26756408     1.04330
C377        C  0.74777326  0.16661401  0.23656507     0.92890
C378        C  0.75104600  0.30564438  0.26394149     0.92030
C379        C  0.81905336  0.24031030  0.23641742     0.84180
C380        C  0.67967538  0.23145683  0.26355931     0.90450
C381        C  0.25334598  0.02035982  0.19899292     0.02770
C382        C  0.25298520  0.02166837  0.17583243    -0.13380
C383        C  0.25744852  0.98919775  0.16337699     0.00270
C384        C  0.26074311  0.95521333  0.17464014    -0.11910
C385        C  0.25720698  0.95283558  0.19767598     0.02760
C386        C  0.25318667  0.98580170  0.20977120    -0.11330
H387        H  0.24956549  0.04819149  0.16768564     0.08360
H388        H  0.26562987  0.93012292  0.16532827     0.05890
H389        H  0.25048150  0.98479138  0.22751016     0.05730
C390        C  0.96553269  0.23705729  0.19821655     0.02770
C391        C  0.96692240  0.23818780  0.17510748    -0.13380
C392        C  0.00117350  0.23943643  0.16407046     0.00270
C393        C  0.03401243  0.24017825  0.17639081    -0.11910
C394        C  0.03294722  0.23968701  0.19942285     0.02760
C395        C  0.99866726  0.23766062  0.21035051    -0.11330
H396        H  0.94132336  0.23883448  0.16577094     0.08360
H397        H  0.06060111  0.24131783  0.16802600     0.05890
H398        H  0.99778982  0.23663114  0.22818031     0.05730
O399        O  0.24250874  0.17308866  0.25886944    -0.73300
O400        O  0.23552545  0.27995131  0.27685653    -0.74280
O401        O  0.18595079  0.22776442  0.25680393    -0.62900
O402        O  0.29174744  0.22580696  0.27829920    -0.71310
O403        O  0.31141315  0.24191951  0.24491084    -0.70870
O404        O  0.20585898  0.24716156  0.22407465    -0.62120
O405        O  0.25634728  0.29810208  0.24406593    -0.74630
O406        O  0.26068807  0.19111953  0.22561816    -0.73410
Cu407      Cu  0.23818693  0.22604860  0.26886065     1.04560
Cu408      Cu  0.25920918  0.24517810  0.23350101     1.04330
C409        C  0.25194937  0.16524252  0.23917741     0.92890
C410        C  0.24578527  0.30564191  0.26363350     0.92030
C411        C  0.17944656  0.23748816  0.23691398     0.84180
C412        C  0.31813956  0.23373677  0.26497549     0.90450
C413        C  0.49851199  0.22992462  0.33677788     0.02770
C414        C  0.53234674  0.23051649  0.32539593    -0.13380
C415        C  0.53310607  0.23414227  0.30236727     0.00270
C416        C  0.49945489  0.23761761  0.29072936    -0.11910
C417        C  0.46532751  0.23723765  0.30209387     0.02760
C418        C  0.46529129  0.23235519  0.32502179    -0.11330
H419        H  0.55810863  0.22772995  0.33444613     0.08360
H420        H  0.49986602  0.24049610  0.27296728     0.05890
H421        H  0.43917870  0.23054951  0.33384864     0.05730
C422        C  0.25230763  0.51876996  0.30207371     0.02770
C423        C  0.25634834  0.51830768  0.32500721    -0.13380
C424        C  0.25590036  0.48482089  0.33689658     0.00270
C425        C  0.25384481  0.45131240  0.32521867    -0.11910
C426        C  0.25310520  0.45124365  0.30207910     0.02760
C427        C  0.25153721  0.48509056  0.29054999    -0.11330
H428        H  0.25831798  0.54442221  0.33370390     0.08360
H429        H  0.25209684  0.42518531  0.33403263     0.05890
H430        H  0.24944689  0.48519514  0.27275237     0.05730
C431        C  0.74539934  0.51902324  0.30340151     0.02770
C432        C  0.75066706  0.51988834  0.32625037    -0.13380
C433        C  0.75318282  0.48722418  0.33858187     0.00270
C434        C  0.75230041  0.45298488  0.32772816    -0.11910
C435        C  0.74509483  0.45096827  0.30493243     0.02760
C436        C  0.74128260  0.48445566  0.29292512    -0.11330
H437        H  0.75315468  0.54631267  0.33457257     0.08360
H438        H  0.75773851  0.42800611  0.33712961     0.05890
H439        H  0.73535444  0.48372426  0.27546379     0.05730
C440        C  0.53280179  0.73323773  0.30228016     0.02770
C441        C  0.53229026  0.73483092  0.32534139    -0.13380
C442        C  0.49848242  0.73568418  0.33674538     0.00270
C443        C  0.46512614  0.73407893  0.32497328    -0.11910
C444        C  0.46523787  0.73300944  0.30188837     0.02760
C445        C  0.49926103  0.73252356  0.29056108    -0.11330
H446        H  0.55817978  0.73674347  0.33433986     0.08360
H447        H  0.43897112  0.73515558  0.33379337     0.05890
H448        H  0.49967614  0.73265640  0.27272059     0.05730
C449        C  0.35657147  0.23504395  0.27315895    -0.06480
C450        C  0.36476819  0.26049481  0.28980661    -0.17610
C451        C  0.40075423  0.26410674  0.29806387     0.10710
C452        C  0.42918050  0.24025846  0.29043384    -0.06410
C453        C  0.42125799  0.21572328  0.27312095    -0.17640
C454        C  0.38532987  0.21299367  0.26434759     0.10750
S455        S  0.40869894  0.30047965  0.31785889    -0.32610
S456        S  0.37762004  0.17971806  0.24271983    -0.32610
H457        H  0.34079768  0.17105327  0.24850336     0.28750
H458        H  0.44620153  0.30625031  0.31230059     0.28750
H459        H  0.34306385  0.27837869  0.29607980     0.19340
H460        H  0.44271901  0.19733868  0.26709235     0.19350
C461        C  0.24764848  0.34400313  0.27171457    -0.06480
C462        C  0.27956847  0.35464760  0.28321191    -0.17610
C463        C  0.28277960  0.39007912  0.29228816     0.10710
C464        C  0.25311236  0.41546986  0.29019465    -0.06410
C465        C  0.22166182  0.40526905  0.27797930    -0.17640
C466        C  0.21849772  0.36967691  0.26890900     0.10750
S467        S  0.32553708  0.40118921  0.30622143    -0.32610
S468        S  0.17639776  0.35829635  0.25449594    -0.32610
H469        H  0.17517860  0.32119464  0.26167398     0.28750
H470        H  0.32463632  0.43949354  0.30173688     0.28750
H471        H  0.30217763  0.33510978  0.28518601     0.19340
H472        H  0.19880228  0.42458161  0.27630713     0.19350
C473        C  0.06830832  0.23910824  0.21159935    -0.06480
C474        C  0.08917952  0.20636768  0.21085468    -0.17610
C475        C  0.12562280  0.20527194  0.21863356     0.10710
C476        C  0.14118581  0.23713218  0.22845624    -0.06410
C477        C  0.12020523  0.26980672  0.22944212    -0.17640
C478        C  0.08411225  0.27133702  0.22092410     0.10750
S479        S  0.15110587  0.16297858  0.21428466    -0.32610
S480        S  0.06141627  0.31595465  0.22079372    -0.32610
H481        H  0.02473281  0.30302767  0.22113948     0.28750
H482        H  0.18588323  0.17977632  0.21111148     0.28750
H483        H  0.07759696  0.18196281  0.20306106     0.19340
H484        H  0.13232860  0.29458164  0.23635476     0.19350
C485        C  0.25549410  0.05541832  0.21168826    -0.06480
C486        C  0.22814492  0.06373847  0.22737969    -0.17610
C487        C  0.22709070  0.09852389  0.23773343     0.10710
C488        C  0.25329147  0.12623335  0.23158987    -0.06410
C489        C  0.28185635  0.11679496  0.21695540    -0.17640
C490        C  0.28410130  0.08147423  0.20777347     0.10750
S491        S  0.19156976  0.10494187  0.25836196    -0.32610
S492        S  0.32547932  0.07078961  0.19237354    -0.32610
H493        H  0.32517576  0.03247253  0.19688724     0.28750
H494        H  0.18404319  0.14231629  0.25390223     0.28750
H495        H  0.20692895  0.04335522  0.23118864     0.19340
H496        H  0.30328479  0.13691560  0.21303096     0.19350
C497        C  0.85747210  0.23962463  0.22813155    -0.06480
C498        C  0.86884815  0.20829852  0.21629346    -0.17610
C499        C  0.90459595  0.20592676  0.20739719     0.10710
C500        C  0.92922379  0.23618174  0.20956671    -0.06410
C501        C  0.91803008  0.26741190  0.22158074    -0.17640
C502        C  0.88260029  0.26932625  0.23108595     0.10750
S503        S  0.91718786  0.16351114  0.19361553    -0.32610
S504        S  0.87096838  0.31110739  0.24577580    -0.32610
H505        H  0.84294646  0.29596393  0.25915644     0.28750
H506        H  0.95534959  0.16544961  0.19831333     0.28750
H507        H  0.84973710  0.18545330  0.21394777     0.19340
H508        H  0.93682261  0.29073751  0.22322365     0.19350
C509        C  0.74905281  0.34362013  0.27303519    -0.06480
C510        C  0.73091767  0.34767628  0.29329330    -0.17610
C511        C  0.72695702  0.38240078  0.30326646     0.10710
C512        C  0.74385281  0.41408936  0.29358250    -0.06410
C513        C  0.76114554  0.41009790  0.27288466    -0.17640
C514        C  0.76322226  0.37556725  0.26232106     0.10750
S515        S  0.69698741  0.38576142  0.32704166    -0.32610
S516        S  0.78467915  0.37463867  0.23547016    -0.32610
H517        H  0.79762176  0.33805609  0.23655369     0.28750
H518        H  0.69410968  0.34752943  0.33152198     0.28750
H519        H  0.71838455  0.32348764  0.30091622     0.19340
H520        H  0.77394778  0.43389733  0.26499665     0.19350
C521        C  0.64085228  0.23005192  0.27149511    -0.06480
C522        C  0.61836318  0.26153274  0.26870454    -0.17610
C523        C  0.58311073  0.26367206  0.27845875     0.10710
C524        C  0.56938368  0.23323098  0.29078209    -0.06410
C525        C  0.59139424  0.20127054  0.29288460    -0.17640
C526        C  0.62667192  0.19923197  0.28325388     0.10750
S527        S  0.55812046  0.30676545  0.27569716    -0.32610
S528        S  0.65182888  0.15623712  0.28607461    -0.32610
H529        H  0.66982599  0.15857773  0.26553516     0.28750
H530        H  0.54145226  0.30558237  0.29663909     0.28750
H531        H  0.62910314  0.28540035  0.25982875     0.19340
H532        H  0.58091330  0.17763130  0.30208071     0.19350
C533        C  0.74382844  0.05581728  0.21062659    -0.06480
C534        C  0.77379979  0.06631516  0.22390847    -0.17610
C535        C  0.77578087  0.10203323  0.23293451     0.10710
C536        C  0.74713592  0.12796069  0.22850596    -0.06410
C537        C  0.71657112  0.11675082  0.21592410    -0.17640
C538        C  0.71416377  0.08086267  0.20748166     0.10750
S539        S  0.81645416  0.11302316  0.24891031    -0.32610
S540        S  0.67192392  0.06842752  0.19341817    -0.32610
H541        H  0.67343726  0.03029496  0.19834948     0.28750
H542        H  0.81952647  0.14986251  0.24155791     0.28750
H543        H  0.79648080  0.04708411  0.22652978     0.19340
H544        H  0.69392889  0.13592293  0.21301935     0.19350
C545        C  0.74593062  0.84329811  0.22727088    -0.06480
C546        C  0.72357796  0.87026805  0.23732267    -0.17610
C547        C  0.72016895  0.90609454  0.22822989     0.10710
C548        C  0.74103942  0.91580684  0.20921802    -0.06410
C549        C  0.76436571  0.88895854  0.19987178    -0.17640
C550        C  0.76669150  0.85320153  0.20849212     0.10750
S551        S  0.68686641  0.93675302  0.24076131    -0.32610
S552        S  0.79808716  0.82180115  0.19534550    -0.32610
H553        H  0.81226231  0.80929183  0.21561942     0.28750
H554        H  0.67586756  0.95386505  0.22097104     0.28750
H555        H  0.70735900  0.86289810  0.25171883     0.19340
H556        H  0.78134298  0.89596058  0.18569690     0.19350
C557        C  0.56861811  0.73474518  0.29053878    -0.06480
C558        C  0.58784222  0.76862626  0.28991764    -0.17610
C559        C  0.62253874  0.77156958  0.27968172     0.10710
C560        C  0.63869615  0.73989454  0.27008456    -0.06410
C561        C  0.61871385  0.70641864  0.26982772    -0.17640
C562        C  0.58417152  0.70330877  0.28027890     0.10750
S563        S  0.64445752  0.81655887  0.27886982    -0.32610
S564        S  0.56228834  0.65820198  0.28068911    -0.32610
H565        H  0.54210318  0.66279324  0.30029186     0.28750
H566        H  0.66281248  0.81091558  0.25871052     0.28750
H567        H  0.57567710  0.79294530  0.29746561     0.19340
H568        H  0.63094757  0.68200566  0.26242955     0.19350
C569        C  0.74472757  0.62756000  0.27315331    -0.06480
C570        C  0.76525402  0.59898874  0.26332037    -0.17610
C571        C  0.76586233  0.56311899  0.27247937     0.10710
C572        C  0.74379759  0.55499387  0.29124873    -0.06410
C573        C  0.72178756  0.58334211  0.30020632    -0.17640
C574        C  0.72241997  0.61933169  0.29167694     0.10750
S575        S  0.79755765  0.53022986  0.26047309    -0.32610
S576        S  0.69405388  0.65338438  0.30535342    -0.32610
H577        H  0.68556062  0.67329319  0.28618337     0.28750
H578        H  0.80903832  0.51481108  0.28064914     0.28750
H579        H  0.78257208  0.60518663  0.24916498     0.19340
H580        H  0.70436474  0.57757023  0.31438099     0.19350
C581        C  0.25124529  0.84255468  0.22599242    -0.06480
C582        C  0.27129953  0.87028303  0.23695742    -0.17610
C583        C  0.27481295  0.90613566  0.22805193     0.10710
C584        C  0.25575983  0.91540676  0.20835546    -0.06410
C585        C  0.23457826  0.88769528  0.19798141    -0.17640
C586        C  0.23267244  0.85153998  0.20623397     0.10750
S587        S  0.30650257  0.93719909  0.24170115    -0.32610
S588        S  0.20591963  0.81850991  0.19054864    -0.32610
H589        H  0.19497082  0.79616536  0.20834071     0.28750
H590        H  0.31974101  0.95392658  0.22224320     0.28750
H591        H  0.28612645  0.86336549  0.25193359     0.19340
H592        H  0.21921748  0.89419581  0.18313396     0.19350
C593        C  0.35897074  0.74165712  0.27005139    -0.06480
C594        C  0.38294350  0.71239398  0.26455553    -0.17610
C595        C  0.41779164  0.70876954  0.27455228     0.10710
C596        C  0.42954599  0.73562157  0.28993427    -0.06410
C597        C  0.40634745  0.76590676  0.29450345    -0.17640
C598        C  0.37151525  0.76938826  0.28464496     0.10750
S599        S  0.44467812  0.66807275  0.26804893    -0.32610
S600        S  0.34486822  0.81032942  0.29097072    -0.32610
H601        H  0.32841623  0.81325123  0.27004419     0.28750
H602        H  0.46034014  0.66371255  0.28908831     0.28750
H603        H  0.37366973  0.69102611  0.25334831     0.19340
H604        H  0.41553653  0.78712993  0.30585820     0.19350
C605        C  0.24936468  0.62747309  0.27263202    -0.06480
C606        C  0.22219350  0.61691839  0.28800958    -0.17610
C607        C  0.22112347  0.58099207  0.29677378     0.10710
C608        C  0.24847168  0.55488793  0.29055959    -0.06410
C609        C  0.27496915  0.56494841  0.27470100    -0.17640
C610        C  0.27600816  0.60092066  0.26587778     0.10750
S611        S  0.18376179  0.57012400  0.31557623    -0.32610
S612        S  0.31386672  0.61180663  0.24751991    -0.32610
H613        H  0.32134046  0.64641541  0.25717384     0.28750
H614        H  0.18172970  0.53219702  0.31033753     0.28750
H615        H  0.20124465  0.63670000  0.29305029     0.19340
H616        H  0.29625091  0.54524982  0.27004901     0.19350
C617        C  0.06893917  0.72544924  0.21153140    -0.06480
C618        C  0.07950618  0.75574600  0.22453650    -0.17610
C619        C  0.11532277  0.75824088  0.23340938     0.10710
C620        C  0.14131615  0.72960979  0.22929095    -0.06410
C621        C  0.13015808  0.69869228  0.21699865    -0.17640
C622        C  0.09422144  0.69592958  0.20852622     0.10750
S623        S  0.12625390  0.79963125  0.24872216    -0.32610
S624        S  0.08214150  0.65365923  0.19440411    -0.32610
H625        H  0.04420176  0.65454900  0.19988741     0.28750
H626        H  0.16303162  0.80306989  0.24136933     0.28750
H627        H  0.06028184  0.77847421  0.22693640     0.19340
H628        H  0.14950681  0.67619375  0.21420072     0.19350
C629        C  0.85632679  0.72989165  0.22884940    -0.06480
C630        C  0.86285707  0.74783414  0.20875902    -0.17610
C631        C  0.89860071  0.75313272  0.20063126     0.10710
C632        C  0.92882589  0.73471190  0.21076101    -0.06410
C633        C  0.92242831  0.71611645  0.23091071    -0.17640
C634        C  0.88671020  0.71434266  0.24030655     0.10750
S635        S  0.90356768  0.78606207  0.17828356    -0.32610
S636        S  0.88138781  0.68973150  0.26601762    -0.32610
H637        H  0.84583576  0.67554780  0.26146070     0.28750
H638        H  0.93977256  0.79713059  0.18396348     0.28750
H639        H  0.83991671  0.75910634  0.19956829     0.19340
H640        H  0.94498354  0.70176041  0.23904584     0.19350
C641        C  0.00235699  0.25884101  0.09418953    -0.06480
C642        C  0.98397866  0.22744040  0.10253369    -0.17610
C643        C  0.98449082  0.21920527  0.12513927     0.10710
C644        C  0.00295649  0.24344906  0.13978914    -0.06410
C645        C  0.02303266  0.27355266  0.13116870    -0.17640
C646        C  0.02357686  0.28103313  0.10864267     0.10750
S647        S  0.96126377  0.17747074  0.13417555    -0.32610
S648        S  0.05214281  0.31930468  0.09946736    -0.32610
H649        H  0.06037029  0.30403414  0.07875539     0.28750
H650        H  0.98442037  0.17090055  0.15239494     0.28750
H651        H  0.96811456  0.20998251  0.09152298     0.19340
H652        H  0.03797484  0.29188525  0.14214529     0.19350
C653        C  0.26717330  0.98005630  0.09266688    -0.06480
C654        C  0.28352683  0.01019718  0.10343693    -0.17610
C655        C  0.27991463  0.01506685  0.12621314     0.10710
C656        C  0.25838722  0.98951826  0.13869202    -0.06410
C657        C  0.23956637  0.96101101  0.12737936    -0.17640
C658        C  0.24414016  0.95570346  0.10470085     0.10750
S659        S  0.30724459  0.05112500  0.13881165    -0.32610
S660        S  0.22339879  0.91499134  0.09271971    -0.32610
H661        H  0.21745381  0.93066847  0.07184839     0.28750
H662        H  0.31497547  0.07139786  0.11948853     0.28750
H663        H  0.30176494  0.02834267  0.09413272     0.19340
H664        H  0.22235976  0.94155917  0.13645462     0.19350
C665        C  0.26640977  0.97921278  0.86093428    -0.06480
C666        C  0.24685326  0.00489429  0.87391640    -0.17610
C667        C  0.25144125  0.00624670  0.89677051     0.10710
C668        C  0.27556434  0.98090381  0.90715235    -0.06410
C669        C  0.29412980  0.95443020  0.89434522    -0.17640
C670        C  0.29052419  0.95374353  0.87144619     0.10750
S671        S  0.22900367  0.04336332  0.91136845    -0.32610
S672        S  0.32028593  0.92212366  0.85673372    -0.32610
H673        H  0.32688373  0.94612522  0.83882269     0.28750
H674        H  0.21656521  0.02079640  0.92875311     0.28750
H675        H  0.22828375  0.02459636  0.86613472     0.19340
H676        H  0.31356403  0.93560211  0.90216123     0.19350
C677        C  0.25128932  0.12742246  0.77503094    -0.06480
C678        C  0.26833356  0.09878216  0.76311551    -0.17610
C679        C  0.27039359  0.06249640  0.77159498     0.10710
C680        C  0.25344055  0.05399176  0.79210428    -0.06410
C681        C  0.23527396  0.08266019  0.80350829    -0.17640
C682        C  0.23420904  0.11894583  0.79536200     0.10750
S683        S  0.29719293  0.02944436  0.75607174    -0.32610
S684        S  0.20942206  0.15285333  0.81142538    -0.32610
H685        H  0.19335179  0.17082097  0.79319136     0.28750
H686        H  0.31225219  0.01143294  0.77459307     0.28750
H687        H  0.28160900  0.10509175  0.74751425     0.19340
H688        H  0.22138287  0.07671535  0.81896669     0.19350
C689        C  0.24203951  0.34132607  0.72663002    -0.06480
C690        C  0.27577569  0.35895343  0.72173058    -0.17610
C691        C  0.27684603  0.39472194  0.71280199     0.10710
C692        C  0.24336073  0.41365227  0.70858332    -0.06570
C693        C  0.20948556  0.39639806  0.71367932    -0.17640
C694        C  0.20834003  0.36031850  0.72248554     0.10750
S695        S  0.32183707  0.41405424  0.70634471    -0.32610
S696        S  0.16292893  0.34095741  0.72795850    -0.32610
H697        H  0.17308778  0.30406306  0.73194451     0.28750
H698        H  0.31227620  0.45137774  0.70970975     0.28750
H699        H  0.30161424  0.34451478  0.72444583     0.19340
H700        H  0.18373910  0.41078713  0.71021812     0.19350
C701        C  0.43040372  0.22780475  0.71309035    -0.06480
C702        C  0.41938156  0.25840654  0.72566026    -0.17610
C703        C  0.38359756  0.26039961  0.73471747     0.10710
C704        C  0.35797472  0.23118994  0.73092672    -0.06410
C705        C  0.36984827  0.19981985  0.71933689    -0.17640
C706        C  0.40590780  0.19739240  0.71098860     0.10750
S707        S  0.37229686  0.30184677  0.74981502    -0.32610
S708        S  0.41926135  0.15423243  0.69848706    -0.32610
H709        H  0.45736189  0.15763551  0.70308365     0.28750
H710        H  0.33486952  0.30287566  0.74375499     0.28750
H711        H  0.43817845  0.28167200  0.72755608     0.19340
H712        H  0.35100168  0.17669249  0.71705230     0.19350
C713        C  0.00378476  0.23458759  0.86239754    -0.06480
C714        C  0.03004613  0.25977107  0.87067304    -0.17610
C715        C  0.03257031  0.26719762  0.89310801     0.10710
C716        C  0.00709079  0.25064227  0.90786674    -0.06410
C717        C  0.98210717  0.22395436  0.89998192    -0.17640
C718        C  0.98064316  0.21523137  0.87748035     0.10750
S719        S  0.06887654  0.29839910  0.90183406    -0.32610
S720        S  0.94896660  0.17911196  0.86923331    -0.32610
H721        H  0.97035883  0.16695230  0.85127663     0.28750
H722        H  0.07298397  0.28267593  0.92293028     0.28750
H723        H  0.04840744  0.27453557  0.85951967     0.19340
H724        H  0.96277230  0.21080533  0.91126199     0.19350
C725        C  0.13938788  0.23859037  0.77120164    -0.06480
C726        C  0.11546476  0.20927964  0.76550105    -0.17610
C727        C  0.08014855  0.20576621  0.77507799     0.10710
C728        C  0.06792899  0.23272167  0.79023687    -0.06410
C729        C  0.09112858  0.26289009  0.79508504    -0.17640
C730        C  0.12640397  0.26628380  0.78573663     0.10750
S731        S  0.05317387  0.16519425  0.76833493    -0.32610
S732        S  0.15304916  0.30681247  0.79312092    -0.32610
H733        H  0.17185498  0.31010994  0.77295565     0.28750
H734        H  0.03600657  0.16132784  0.78901801     0.28750
H735        H  0.12512702  0.18777936  0.75448477     0.19340
H736        H  0.08170784  0.28393470  0.80649456     0.19350
C737        C  0.24962104  0.84153246  0.77196435    -0.06480
C738        C  0.22531126  0.84813179  0.78954599    -0.17610
C739        C  0.22063694  0.88375163  0.79812762     0.10710
C740        C  0.24255574  0.91345794  0.78997074    -0.06410
C741        C  0.26562390  0.90714623  0.77165397    -0.17640
C742        C  0.26916525  0.87163548  0.76249567     0.10750
S743        S  0.18536461  0.88955138  0.81896363    -0.32610
S744        S  0.30060773  0.86616973  0.73962640    -0.32610
H745        H  0.31233304  0.83025456  0.74541428     0.28750
H746        H  0.17852388  0.92719445  0.81429632     0.28750
H747        H  0.20909167  0.82543158  0.79632130     0.19340
H748        H  0.28254921  0.92954549  0.76516716     0.19350
C749        C  0.43247775  0.73883756  0.71348308    -0.06480
C750        C  0.41786958  0.70562282  0.72183163    -0.17610
C751        C  0.38158257  0.70397266  0.73005815     0.10710
C752        C  0.35947624  0.73634616  0.73037200    -0.06410
C753        C  0.37460413  0.76982869  0.72265974    -0.17640
C754        C  0.41094020  0.77153010  0.71452099     0.10750
S755        S  0.36413578  0.65911223  0.73795306    -0.32610
S756        S  0.42792626  0.81610348  0.70538303    -0.32610
H757        H  0.46579883  0.80850559  0.70853853     0.28750
H758        H  0.32865943  0.66460139  0.72889017     0.28750
H759        H  0.43404352  0.68036471  0.72070365     0.19340
H760        H  0.35795486  0.79482256  0.72290196     0.19350
C761        C  0.24371356  0.62470762  0.72885700    -0.06480
C762        C  0.22311396  0.61841343  0.70959283    -0.17610
C763        C  0.22033651  0.58320104  0.70024557     0.10710
C764        C  0.24076520  0.55329685  0.70928563    -0.06410
C765        C  0.25957435  0.55878975  0.72922502    -0.17640
C766        C  0.26068491  0.59370795  0.73934465     0.10750
S767        S  0.18863424  0.57820135  0.67745838    -0.32610
S768        S  0.28373379  0.59572702  0.76562649    -0.32610
H769        H  0.30557862  0.62662530  0.76043002     0.28750
H770        H  0.17929307  0.54104105  0.68206028     0.28750
H771        H  0.20811486  0.64104228  0.70189857     0.19340
H772        H  0.27447670  0.53591992  0.73672682     0.19350
C773        C  0.06871044  0.72856093  0.78771484    -0.06480
C774        C  0.08171192  0.76086453  0.77731133    -0.17610
C775        C  0.11753656  0.76244618  0.76834500     0.10710
C776        C  0.14077872  0.73092295  0.76970293    -0.06410
C777        C  0.12706410  0.69818830  0.77924971    -0.17640
C778        C  0.09111990  0.69645580  0.78784306     0.10750
S779        S  0.13266488  0.80616067  0.75686371    -0.32610
S780        S  0.07550166  0.65247951  0.79869246    -0.32610
H781        H  0.03749158  0.65849875  0.79493699     0.28750
H782        H  0.16943634  0.80347305  0.76427876     0.28750
H783        H  0.06458079  0.78555607  0.77719748     0.19340
H784        H  0.14449752  0.67372212  0.77995667     0.19350
C785        C  0.85829933  0.73277204  0.77294184    -0.06480
C786        C  0.88375283  0.70539275  0.76673444    -0.17610
C787        C  0.91901389  0.70364238  0.77639316     0.10710
C788        C  0.92970247  0.73091749  0.79186550    -0.06410
C789        C  0.90431999  0.75874709  0.79764436    -0.17640
C790        C  0.86866534  0.75975421  0.78849237     0.10750
S791        S  0.94798448  0.66468593  0.76933021    -0.32610
S792        S  0.83661927  0.79580785  0.79650563    -0.32610
H793        H  0.86103763  0.81518141  0.81039170     0.28750
H794        H  0.96391753  0.66070233  0.79033001     0.28750
H795        H  0.87554925  0.68435480  0.75501410     0.19340
H796        H  0.91251015  0.77960626  0.80945941     0.19350
C797        C  0.75196920  0.62688502  0.72850911    -0.06480
C798        C  0.72534029  0.61903888  0.71243172    -0.17610
C799        C  0.72183324  0.58352741  0.70359226     0.10710
C800        C  0.74684818  0.55530037  0.71002685    -0.06410
C801        C  0.77280525  0.56283749  0.72671490    -0.17640
C802        C  0.77553795  0.59829681  0.73608638     0.10750
S803        S  0.68372178  0.57582569  0.68495994    -0.32610
S804        S  0.81031253  0.60548725  0.75699247    -0.32610
H805        H  0.81618589  0.64342349  0.75283061     0.28750
H806        H  0.67858912  0.53817930  0.69038518     0.28750
H807        H  0.70648935  0.64067860  0.70705380     0.19340
H808        H  0.79187811  0.54132938  0.73195556     0.19350
C809        C  0.64393310  0.74095175  0.72678977    -0.06480
C810        C  0.61989300  0.71137690  0.73185269    -0.17610
C811        C  0.58424505  0.70933366  0.72274840     0.10710
C812        C  0.57175663  0.73798395  0.70863657    -0.06410
C813        C  0.59540773  0.76809549  0.70411915    -0.17640
C814        C  0.63103375  0.77009804  0.71319139     0.10750
S815        S  0.55698541  0.66852256  0.72884762    -0.32610
S816        S  0.65802915  0.81123048  0.70749361    -0.32610
H817        H  0.67499131  0.81260168  0.72833109     0.28750
H818        H  0.53947624  0.66662682  0.70821034     0.28750
H819        H  0.62954202  0.68881044  0.74220962     0.19340
H820        H  0.58581323  0.79051355  0.69363045     0.19350
C821        C  0.85689900  0.24051344  0.77379140    -0.06480
C822        C  0.88016793  0.21025429  0.76922775    -0.17610
C823        C  0.91536591  0.20717010  0.77884709     0.10710
C824        C  0.92830901  0.23546838  0.79294727    -0.06410
C825        C  0.90552675  0.26632144  0.79693235    -0.17640
C826        C  0.87027793  0.26932619  0.78736779     0.10750
S827        S  0.94138334  0.16543860  0.77347251    -0.32610
S828        S  0.84432101  0.31115452  0.79249445    -0.32610
H829        H  0.82710642  0.31222790  0.77173479     0.28750
H830        H  0.95771463  0.16294230  0.79443809     0.28750
H831        H  0.87013646  0.18789707  0.75894178     0.19340
H832        H  0.91545709  0.28843203  0.80743342     0.19350
C833        C  0.74767987  0.34248006  0.72897582    -0.06480
C834        C  0.77469903  0.36848699  0.73508969    -0.17610
C835        C  0.77431239  0.40464594  0.72645088     0.10710
C836        C  0.74543158  0.41545800  0.71201175    -0.06410
C837        C  0.71740073  0.38981503  0.70691899    -0.17640
C838        C  0.71845782  0.35348834  0.71497713     0.10750
S839        S  0.81245240  0.43475095  0.73353675    -0.32610
S840        S  0.68113801  0.32280820  0.70727040    -0.32610
H841        H  0.70389734  0.29225827  0.70262297     0.28750
H842        H  0.81572922  0.45133022  0.71262424     0.28750
H843        H  0.79701303  0.36016254  0.74597587     0.19340
H844        H  0.69506888  0.39787920  0.69596184     0.19350
C845        C  0.64141632  0.22827569  0.72819655    -0.06480
C846        C  0.61613536  0.25573480  0.73482633    -0.17610
C847        C  0.58085168  0.25861030  0.72525465     0.10710
C848        C  0.56988920  0.23282065  0.70901468    -0.06410
C849        C  0.59479416  0.20472999  0.70288851    -0.17640
C850        C  0.63005788  0.20196645  0.71235752     0.10750
S851        S  0.55220162  0.29708025  0.73358702    -0.32610
S852        S  0.65854851  0.16334610  0.70407610    -0.32610
H853        H  0.67388058  0.15727253  0.72508170     0.28750
H854        H  0.53548617  0.30257537  0.71292727     0.28750
H855        H  0.62456219  0.27628309  0.74679699     0.19340
H856        H  0.58643557  0.18430349  0.69082303     0.19350
C857        C  0.74093633  0.05393771  0.79178241    -0.06480
C858        C  0.76707765  0.06250907  0.77534260    -0.17610
C859        C  0.76860383  0.09778451  0.76560820     0.10710
C860        C  0.74417001  0.12596834  0.77284731    -0.06410
C861        C  0.71738838  0.11702466  0.78887760    -0.17640
C862        C  0.71488486  0.08134118  0.79795948     0.10750
S863        S  0.80403298  0.10560039  0.74518765    -0.32610
S864        S  0.67699182  0.07243407  0.81672655    -0.32610
H865        H  0.67290238  0.03475693  0.81125932     0.28750
H866        H  0.77799423  0.11147906  0.72827950     0.28750
H867        H  0.78714294  0.04177716  0.77039064     0.19340
H868        H  0.69772475  0.13790325  0.79416489     0.19350
C869        C  0.74657242  0.91522351  0.78832309    -0.06480
C870        C  0.77691152  0.90452981  0.77536102    -0.17610
C871        C  0.77769114  0.86967894  0.76519812     0.10710
C872        C  0.74823181  0.84430724  0.76884563    -0.06410
C873        C  0.71734473  0.85577459  0.78109093    -0.17640
C874        C  0.71570718  0.89120573  0.79023075     0.10750
S875        S  0.81811742  0.85819895  0.74921132    -0.32610
S876        S  0.67314507  0.90413258  0.80378378    -0.32610
H877        H  0.67670438  0.94257989  0.80037201     0.28750
H878        H  0.79762440  0.85338293  0.72973212     0.28750
H879        H  0.80042734  0.92307730  0.77356467     0.19340
H880        H  0.69408857  0.83704189  0.78340068     0.19350
C881        C  0.23775926  0.48531718  0.59238707    -0.06480
C882        C  0.26277202  0.45999311  0.60173160    -0.17610
C883        C  0.27043063  0.46048938  0.62440969     0.10710
C884        C  0.25142074  0.48589170  0.63818999    -0.06410
C885        C  0.22839630  0.51264464  0.62832819    -0.17640
C886        C  0.22226996  0.51326799  0.60571751     0.10750
S887        S  0.30477618  0.42832773  0.63452088    -0.32610
S888        S  0.19366225  0.55018587  0.59494136    -0.32610
H889        H  0.21039117  0.55102325  0.57399928     0.28750
H890        H  0.31612164  0.45043755  0.65231814     0.28750
H891        H  0.27531642  0.43889154  0.59149173     0.19340
H892        H  0.21386734  0.53269268  0.63834792     0.19350
C893        C  0.25270287  0.48565816  0.36136931    -0.06480
C894        C  0.22770258  0.51115169  0.37060843    -0.17610
C895        C  0.22051402  0.51172549  0.39312457     0.10710
C896        C  0.23682560  0.48478884  0.40696413    -0.06410
C897        C  0.26330823  0.46049230  0.39819962    -0.17640
C898        C  0.27204529  0.46116504  0.37565400     0.10750
S899        S  0.19005504  0.54762765  0.40315114    -0.32610
S900        S  0.30835090  0.43058217  0.36640908    -0.32610
H901        H  0.32057454  0.45393681  0.34924846     0.28750
H902        H  0.20635304  0.54988597  0.42413713     0.28750
H903        H  0.21281754  0.53047901  0.36016860     0.19340
H904        H  0.27642166  0.44016484  0.40882884     0.19350
C905        C  0.49484493  0.21333979  0.59422822    -0.06480
C906        C  0.47699099  0.18849005  0.60866149    -0.17610
C907        C  0.47805042  0.19314111  0.63135606     0.10710
C908        C  0.49445962  0.22525438  0.64031121    -0.06410
C909        C  0.51039971  0.25158334  0.62593812    -0.17640
C910        C  0.51143288  0.24562573  0.60305331     0.10750
S911        S  0.46131555  0.15493136  0.64781952    -0.32610
S912        S  0.53630217  0.27881172  0.58640827    -0.32610
H913        H  0.55492536  0.25192142  0.57385538     0.28750
H914        H  0.48922463  0.15763740  0.66390636     0.28750
H915        H  0.46388529  0.16368595  0.60230739     0.19340
H916        H  0.52332719  0.27620340  0.63265848     0.19350
C917        C  0.49778286  0.20878606  0.40642226    -0.06480
C918        C  0.51391971  0.24159977  0.39836796    -0.17610
C919        C  0.51356250  0.24993398  0.37578545     0.10710
C920        C  0.49739293  0.22456265  0.36090707    -0.06410
C921        C  0.47967617  0.19277339  0.36912432    -0.17640
C922        C  0.47917948  0.18490906  0.39162431     0.10750
S923        S  0.53419538  0.29315103  0.36698554    -0.32610
S924        S  0.45395856  0.14407243  0.40032422    -0.32610
H925        H  0.44348159  0.15831894  0.42093807     0.28750
H926        H  0.51105498  0.29848979  0.34861986     0.28750
H927        H  0.52793385  0.26018769  0.40960432     0.19340
H928        H  0.46640762  0.17367295  0.35785523     0.19350
C929        C  0.49384375  0.75583244  0.59423822    -0.06480
C930        C  0.47083433  0.77655700  0.60820947    -0.17610
C931        C  0.47203184  0.77233845  0.63097363     0.10710
C932        C  0.49463833  0.74447842  0.64040224    -0.06410
C933        C  0.51610073  0.72202361  0.62638136    -0.17640
C934        C  0.51662289  0.72796757  0.60349879     0.10750
S935        S  0.44701101  0.80627958  0.64686294    -0.32610
S936        S  0.54880508  0.70111992  0.58743201    -0.32610
H937        H  0.56110616  0.73127066  0.57456068     0.28750
H938        H  0.47525757  0.81075075  0.66260110     0.28750
H939        H  0.45330053  0.79814963  0.60140416     0.19340
H940        H  0.53368866  0.70067091  0.63338748     0.19350
C941        C  0.50070296  0.75659149  0.40639999    -0.06480
C942        C  0.48331034  0.78158394  0.39189517    -0.17610
C943        C  0.48256654  0.77548954  0.36927353     0.10710
C944        C  0.49797479  0.74262084  0.36069472    -0.06410
C945        C  0.51398581  0.71666775  0.37515130    -0.17640
C946        C  0.51591464  0.72348635  0.39786825     0.10750
S947        S  0.46355585  0.81192934  0.35219940    -0.32610
S948        S  0.54004446  0.69011990  0.41469825    -0.32610
H949        H  0.55899261  0.71674211  0.42729121     0.28750
H950        H  0.48925206  0.80796570  0.33491505     0.28750
H951        H  0.47140902  0.80705382  0.39813828     0.19340
H952        H  0.52600687  0.69147622  0.36860391     0.19350
C953        C  0.77234241  0.47416232  0.59482920    -0.06480
C954        C  0.74608985  0.50002961  0.60212392    -0.17610
C955        C  0.73736119  0.50323182  0.62464544     0.10710
C956        C  0.75620004  0.48076411  0.64024231    -0.06410
C957        C  0.78136471  0.45400150  0.63258285    -0.17640
C958        C  0.78860564  0.44966316  0.61022140     0.10750
S959        S  0.70135708  0.53499998  0.63296414    -0.32610
S960        S  0.81831386  0.41163121  0.60239769    -0.32610
H961        H  0.80155656  0.40586102  0.58178477     0.28750
H962        H  0.69363785  0.54959395  0.61195447     0.28750
H963        H  0.73333040  0.51844588  0.59022331     0.19340
H964        H  0.79570036  0.43610332  0.64414631     0.19350
C965        C  0.77500554  0.49241487  0.40811808    -0.06480
C966        C  0.74403092  0.47263786  0.40062530    -0.17610
C967        C  0.73522063  0.47169438  0.37815986     0.10710
C968        C  0.75884026  0.48952011  0.36272009    -0.06410
C969        C  0.78848166  0.51104289  0.37046511    -0.17640
C970        C  0.79612274  0.51351698  0.39290793     0.10750
S971        S  0.69307869  0.44818362  0.37048077    -0.32610
S972        S  0.83281831  0.54467193  0.40107949    -0.32610
H973        H  0.81750718  0.55293759  0.42180619     0.28750
H974        H  0.68573917  0.47019570  0.35182246     0.28750
H975        H  0.72721397  0.45704344  0.41223193     0.19340
H976        H  0.80596165  0.52601481  0.35890855     0.19350
C977        C  0.73731174  0.98164203  0.90795449    -0.06480
C978        C  0.72353797  0.95159383  0.89597101    -0.17610
C979        C  0.72663846  0.95022915  0.87308887     0.10710
C980        C  0.74660750  0.97834737  0.86159319    -0.06410
C981        C  0.76306544  0.00693374  0.87405911    -0.17640
C982        C  0.75780074  0.00941383  0.89689625     0.10750
S983        S  0.69911079  0.91511314  0.85990290    -0.32610
S984        S  0.77405026  0.05080490  0.91038289    -0.32610
H985        H  0.78156048  0.03389066  0.93071944     0.28750
H986        H  0.68246323  0.94093669  0.84559633     0.28750
H987        H  0.70692290  0.93073704  0.90434099     0.19340
H988        H  0.77890560  0.02852845  0.86588871     0.19350
C989        C  0.73506607  0.97807634  0.09281925    -0.06480
C990        C  0.71809890  0.00816440  0.10329398    -0.17610
C991        C  0.72057261  0.01306306  0.12610527     0.10710
C992        C  0.74160512  0.98766566  0.13886748    -0.06410
C993        C  0.76084835  0.95908201  0.12793533    -0.17640
C994        C  0.75740050  0.95372778  0.10521324     0.10750
S995        S  0.69248552  0.04886076  0.13843100    -0.32610
S996        S  0.77867463  0.91303615  0.09356399    -0.32610
H997        H  0.78503720  0.92842033  0.07263717     0.28750
H998        H  0.68500545  0.06881080  0.11898056     0.28750
H999        H  0.70028254  0.02620791  0.09369901     0.19340
H1000       H  0.77755004  0.93968990  0.13732249     0.19350
C1001       C  0.00325867  0.71379424  0.90682445    -0.06480
C1002       C  0.02384948  0.69005670  0.89321478    -0.17610
C1003       C  0.02410413  0.69424716  0.87041357     0.10710
C1004       C  0.00520764  0.72440798  0.86064496    -0.06410
C1005       C  0.98641729  0.74965726  0.87431029    -0.17640
C1006       C  0.98472699  0.74433734  0.89722860     0.10750
S1007       S  0.04601699  0.65789182  0.85482131    -0.32610
S1008       S  0.95658933  0.77585805  0.91297169    -0.32610
H1009       H  0.94091956  0.74840353  0.92664587     0.28750
H1010       H  0.01849515  0.65665768  0.83843541     0.28750
H1011       H  0.03810860  0.66641702  0.90033057     0.19340
H1012       H  0.97176491  0.77285099  0.86698230     0.19350
C1013       C  0.99914416  0.72062535  0.14035153    -0.06480
C1014       C  0.97582374  0.69372390  0.13104185    -0.17610
C1015       C  0.97463371  0.68816685  0.10835455     0.10710
C1016       C  0.99870162  0.70851925  0.09440158    -0.06410
C1017       C  0.02084869  0.73659600  0.10341733    -0.17640
C1018       C  0.02077957  0.74338063  0.12616014     0.10750
S1019       S  0.94145854  0.65478133  0.09824074    -0.32610
S1020       S  0.04839298  0.78172434  0.13586179    -0.32610
H1021       H  0.02438513  0.79119633  0.15322843     0.28750
H1022       H  0.93603814  0.67237903  0.07777772     0.28750
H1023       H  0.95849807  0.67654878  0.14154666     0.19340
H1024       H  0.03903791  0.75261841  0.09278791     0.19350
loop_ 
_geom_bond_atom_site_label_1 
_geom_bond_atom_site_label_2 
_geom_bond_distance 
_geom_bond_site_symmetry_2 
_ccdc_geom_bond_type 
N1            N2   1.325       .  A
N1            C5   1.354       .  A
N1           Cu9   2.111       .  S
N2            C3   1.336       .  A
N2           Cu8   2.046       .  S
C3            C4   1.373       .  A
C3            H6   1.082       .  S
C4            C5   1.391       .  A
C4         C1016   1.476   1_455  S
C5            H7   1.081   1_455  S
Cu8          N11   2.046       .  S
Cu9          N19   2.110   1_454  S
Cu10         N12   2.040       .  S
Cu10         N18   2.040       .  S
N11          N12   1.316   1_454  A
N11          C15   1.342       .  A
N12          C13   1.340       .  A
C13          C14   1.380       .  A
C13          H16   1.082       .  S
C14          C15   1.381   1_656  A
C14         C310   1.458       .  S
C15          H17   1.082       .  S
N18          N19   1.323       .  A
N18          C22   1.333       .  A
N19          C20   1.356   1_655  A
C20          C21   1.395   1_455  A
C20          H23   1.081       .  S
C21          C22   1.374       .  A
C21        C1001   1.481   1_655  S
C22          H24   1.082       .  S
N25          N26   1.323       .  A
N25          C29   1.351       .  A
N25         Cu33   2.091   1_556  S
N26          C27   1.339       .  A
N26         Cu32   2.061       .  S
C27          C28   1.378       .  A
C27          H30   1.082       .  S
C28          C29   1.388       .  A
C28         C977   1.475       .  S
C29          H31   1.082       .  S
Cu32         N35   2.060       .  S
Cu33         N43   2.091       .  S
Cu34         N36   2.055       .  S
Cu34         N42   2.056       .  S
N35          N36   1.319   1_556  A
N35          C39   1.343       .  A
N36          C37   1.343       .  A
C37          C38   1.382       .  A
C37          H40   1.082       .  S
C38          C39   1.383   1_554  A
C38         C286   1.465       .  S
C39          H41   1.082       .  S
N42          N43   1.323       .  A
N42          C46   1.338       .  A
N43          C44   1.350       .  A
C44          C45   1.388       .  A
C44          H47   1.081       .  S
C45          C46   1.376       .  A
C45         C989   1.473       .  S
C46          H48   1.082       .  S
N49          N50   1.324       .  A
N49          C53   1.353       .  A
N49         Cu57   2.105       .  S
N50          C51   1.335       .  A
N50         Cu56   2.045       .  S
C51          C52   1.374       .  A
C51          H54   1.082       .  S
C52          C53   1.391       .  A
C52         C953   1.477       .  S
C53          H55   1.081       .  S
Cu56         N59   2.045       .  S
Cu57         N67   2.105       .  S
Cu58         N60   2.042       .  S
Cu58         N66   2.042       .  S
N59          N60   1.316       .  A
N59          C63   1.341       .  A
N60          C61   1.341       .  A
C61          C62   1.381       .  A
C61          H64   1.082       .  S
C62          C63   1.382       .  A
C62         C134   1.460   1_655  S
C63          H65   1.082       .  S
N66          N67   1.324       .  A
N66          C70   1.335       .  A
N67          C68   1.353       .  A
C68          C69   1.391       .  A
C68          H71   1.081       .  S
C69          C70   1.373       .  A
C69         C965   1.475       .  S
C70          H72   1.082       .  S
N73          N74   1.323       .  A
N73          C77   1.355       .  A
N73         Cu81   2.106       .  S
N74          C75   1.333       .  A
N74         Cu80   2.042       .  S
C75          C76   1.375       .  A
C75          H78   1.082       .  S
C76          C77   1.395       .  A
C76         C929   1.482       .  S
C77          H79   1.081       .  S
Cu80         N83   2.041       .  S
Cu81         N91   2.107       .  S
Cu82         N84   2.045       .  S
Cu82         N90   2.046       .  S
N83          N84   1.315       .  A
N83          C87   1.341       .  A
N84          C85   1.341       .  A
C85          C86   1.382       .  A
C85          H88   1.082       .  S
C86          C87   1.381       .  A
C86         C110   1.460   1_565  S
C87          H89   1.082       .  S
N90          N91   1.324       .  A
N90          C94   1.334       .  A
N91          C92   1.354       .  A
C92          C93   1.394       .  A
C92          H95   1.081       .  S
C93          C94   1.375       .  A
C93         C941   1.482       .  S
C94          H96   1.082       .  S
N97          N98   1.325       .  A
N97         C101   1.353       .  A
N97        Cu105   2.111       .  S
N98          C99   1.336       .  A
N98        Cu104   2.046       .  S
C99         C100   1.373       .  A
C99         H102   1.082       .  S
C100        C101   1.391       .  A
C100        C917   1.477       .  S
C101        H103   1.081       .  S
Cu104       N107   2.045       .  S
Cu105       N115   2.109       .  S
Cu106       N108   2.039       .  S
Cu106       N114   2.040       .  S
N107        N108   1.315       .  A
N107        C111   1.342       .  A
N108        C109   1.341       .  A
C109        C110   1.381       .  A
C109        H112   1.082       .  S
C110        C111   1.382       .  A
C111        H113   1.082       .  S
N114        N115   1.322       .  A
N114        C118   1.332       .  A
N115        C116   1.356       .  A
C116        C117   1.397       .  A
C116        H119   1.081       .  S
C117        C118   1.376       .  A
C117        C905   1.487       .  S
C118        H120   1.082       .  S
N121        N122   1.324       .  A
N121        C125   1.353       .  A
N121       Cu129   2.100       .  S
N122        C123   1.336       .  A
N122       Cu128   2.048       .  S
C123        C124   1.375       .  A
C123        H126   1.082       .  S
C124        C125   1.389       .  A
C124        C881   1.474       .  S
C125        H127   1.081       .  S
Cu128       N131   2.046       .  S
Cu129       N139   2.100       .  S
Cu130       N132   2.048       .  S
Cu130       N138   2.049       .  S
N131        N132   1.317       .  A
N131        C135   1.341       .  A
N132        C133   1.342       .  A
C133        C134   1.381       .  A
C133        H136   1.082       .  S
C134        C135   1.381       .  A
C135        H137   1.082       .  S
N138        N139   1.324       .  A
N138        C142   1.336       .  A
N139        C140   1.352       .  A
C140        C141   1.389       .  A
C140        H143   1.081       .  S
C141        C142   1.375       .  A
C141        C896   1.475       .  S
C142        H144   1.082       .  S
C145        C146   1.407       .  A
C145        C150   1.404   1_545  A
C145        C857   1.488       .  S
C146        C147   1.410   1_545  A
C146        H151   1.082       .  S
C147        C148   1.406       .  A
C147        C980   1.501       .  S
C148        C149   1.403       .  A
C148        H152   1.082       .  S
C149        C150   1.400       .  A
C149        C869   1.477       .  S
C150        H153   1.084       .  S
O154       Cu162   2.016       .  S
O154        C164   1.279       .  A
O155       Cu162   2.019       .  S
O155        C165   1.279       .  A
O156       Cu162   2.007       .  S
O156        C166   1.276       .  A
O157       Cu162   2.011       .  S
O157        C167   1.279       .  A
O158       Cu163   2.010       .  S
O158        C167   1.277       .  A
O159       Cu163   2.012       .  S
O159        C166   1.278       .  A
O160       Cu163   2.011       .  S
O160        C165   1.278       .  A
O161       Cu163   2.007       .  S
O161        C164   1.278       .  A
Cu162      Cu163   2.372       .  S
C164        C845   1.483       .  S
C165        C821   1.481       .  S
C166        C833   1.469       .  S
C167        C860   1.486       .  S
O168       Cu176   2.011       .  S
O168        C178   1.279       .  A
O169       Cu176   2.017       .  S
O169        C179   1.278       .  A
O170       Cu176   2.002       .  S
O170        C180   1.276       .  A
O171       Cu176   2.007       .  S
O171        C181   1.277       .  A
O172       Cu177   2.015       .  S
O172        C181   1.279       .  A
O173       Cu177   2.017       .  S
O173        C180   1.278       .  A
O174       Cu177   2.002       .  S
O174        C179   1.277       .  A
O175       Cu177   2.004       .  S
O175        C178   1.275       .  A
Cu176      Cu177   2.374       .  S
C178        C872   1.478       .  S
C179        C797   1.470       .  S
C180        C785   1.470       .  S
C181        C809   1.479       .  S
C182        C183   1.402       .  A
C182        C187   1.402   1_455  A
C182        C773   1.475       .  S
C183        C184   1.402       .  A
C183        H188   1.084       .  S
C184        C185   1.403   1_455  A
C184       C1004   1.484       .  S
C185        C186   1.406       .  A
C185        H189   1.084       .  S
C186        C187   1.405       .  A
C186        C788   1.482       .  S
C187        H190   1.084       .  S
O191       Cu199   2.009       .  S
O191        C201   1.277       .  A
O192       Cu199   2.015       .  S
O192        C202   1.281       .  A
O193       Cu199   2.013       .  S
O193        C203   1.277       .  A
O194       Cu199   2.010       .  S
O194        C204   1.277       .  A
O195       Cu200   2.021       .  S
O195        C204   1.278       .  A
O196       Cu200   2.002       .  S
O196        C203   1.277       .  A
O197       Cu200   2.008       .  S
O197        C202   1.275       .  A
O198       Cu200   2.017       .  S
O198        C201   1.279       .  A
Cu199      Cu200   2.373       .  S
C201        C737   1.475       .  S
C202        C761   1.492       .  S
C203        C776   1.472       .  S
C204        C752   1.476       .  S
C205        C206   1.404   1_455  A
C205        C210   1.400       .  A
C205        C728   1.480       .  S
C206        C207   1.407       .  A
C206        H211   1.084       .  S
C207        C208   1.407       .  A
C207        C824   1.484       .  S
C208        C209   1.406   1_655  A
C208        H212   1.083       .  S
C209        C210   1.402       .  A
C209        C713   1.489       .  S
C210        H213   1.084       .  S
O214       Cu222   2.018       .  S
O214        C224   1.279       .  A
O215       Cu222   2.015       .  S
O215        C225   1.280       .  A
O216       Cu222   2.011       .  S
O216        C226   1.277       .  A
O217       Cu222   2.014       .  S
O217        C227   1.277       .  A
O218       Cu223   2.019       .  S
O218        C227   1.278       .  A
O219       Cu223   2.017       .  S
O219        C226   1.280       .  A
O220       Cu223   2.009       .  S
O220        C225   1.277       .  A
O221       Cu223   2.000       .  S
O221        C224   1.277       .  A
Cu222      Cu223   2.373       .  S
C224        C725   1.481       .  S
C225        C704   1.480       .  S
C226        C677   1.480       .  S
C227        C689   1.474       .  S
C228        C229   1.411   1_545  A
C228        C233   1.406       .  A
C228        C680   1.495       .  S
C229        C230   1.410       .  A
C229        H234   1.083       .  S
C230        C231   1.405       .  A
C230        C740   1.490       .  S
C231        C232   1.399       .  A
C231        H235   1.082       .  S
C232        C233   1.400   1_565  A
C232        C665   1.487       .  S
C233        H236   1.083       .  S
C237        C238   1.405       .  A
C237        C242   1.407       .  A
C237        C764   1.490       .  S
C238        C239   1.405       .  A
C238        H243   1.083       .  S
C239        C240   1.404       .  A
C239        C884   1.492       .  S
C240        C241   1.402       .  A
C240        H244   1.082       .  S
C241        C242   1.404       .  A
C241        C692   1.475       .  S
C242        H245   1.083       .  S
C246        C247   1.407       .  A
C246        C251   1.408       .  A
C246        C848   1.487       .  S
C247        C248   1.402       .  A
C247        H252   1.084       .  S
C248        C249   1.402       .  A
C248        C908   1.484       .  S
C249        C250   1.403       .  A
C249        H253   1.084       .  S
C250        C251   1.404       .  A
C250        C701   1.482       .  S
C251        H254   1.084       .  S
C255        C256   1.406       .  A
C255        C260   1.407       .  A
C255        C812   1.482       .  S
C256        C257   1.404       .  A
C256        H261   1.084       .  S
C257        C258   1.402       .  A
C257        C932   1.486       .  S
C258        C259   1.400       .  A
C258        H262   1.084       .  S
C259        C260   1.403       .  A
C259        C749   1.476       .  S
C260        H263   1.084       .  S
C264        C265   1.410       .  A
C264        C269   1.407       .  A
C264        C800   1.485       .  S
C265        C266   1.405       .  A
C265        H270   1.083       .  S
C266        C267   1.402       .  A
C266        C956   1.493       .  S
C267        C268   1.400       .  A
C267        H271   1.084       .  S
C268        C269   1.404       .  A
C268        C836   1.482       .  S
C269        H272   1.084       .  S
N273        N274   1.322       .  A
N273        C277   1.351       .  A
N273       Cu281   2.095   1_556  S
N274        C275   1.337       .  A
N274       Cu280   2.048       .  S
C275        C276   1.375       .  A
C275        H278   1.082       .  S
C276        C277   1.390       .  A
C276        C668   1.475       .  S
C277        H279   1.081       .  S
Cu280       N283   2.049       .  S
Cu281       N291   2.095       .  S
Cu282       N284   2.062       .  S
Cu282       N290   2.063       .  S
N283        N284   1.318   1_556  A
N283        C287   1.341       .  A
N284        C285   1.344       .  A
C285        C286   1.384       .  A
C285        H288   1.082       .  S
C286        C287   1.381   1_554  A
C287        H289   1.082       .  S
N290        N291   1.324       .  A
N290        C294   1.339       .  A
N291        C292   1.351       .  A
C292        C293   1.388       .  A
C292        H295   1.082       .  S
C293        C294   1.377       .  A
C293        C653   1.475       .  S
C294        H296   1.082       .  S
N297        N298   1.323       .  A
N297        C301   1.353       .  A
N297       Cu305   2.105       .  S
N298        C299   1.336       .  A
N298       Cu304   2.043       .  S
C299        C300   1.374       .  A
C299        H302   1.082       .  S
C300        C301   1.391       .  A
C300        C641   1.477   1_655  S
C301        H303   1.081   1_655  S
Cu304       N307   2.043       .  S
Cu305       N315   2.105   1_554  S
Cu306       N308   2.045       .  S
Cu306       N314   2.047       .  S
N307        N308   1.316   1_554  A
N307        C311   1.341       .  A
N308        C309   1.341       .  A
C309        C310   1.381       .  A
C309        H312   1.082       .  S
C310        C311   1.380   1_556  A
C311        H313   1.082       .  S
N314        N315   1.324       .  A
N314        C318   1.336       .  A
N315        C316   1.353   1_655  A
C316        C317   1.390       .  A
C316        H319   1.081       .  S
C317        C318   1.374   1_455  A
C317        C716   1.476       .  S
C318        H320   1.082       .  S
C321        C322   1.399       .  A
C321        C326   1.400   1_655  A
C321       C1013   1.488       .  S
C322        C323   1.406       .  A
C322        H327   1.082       .  S
C323        C324   1.409       .  A
C323        C632   1.495       .  S
C324        C325   1.408   1_655  A
C324        H328   1.083       .  S
C325        C326   1.405       .  A
C325        C617   1.483       .  S
C326        H329   1.083       .  S
O330       Cu338   2.006       .  S
O330        C340   1.277       .  A
O331       Cu338   2.002       .  S
O331        C341   1.276       .  A
O332       Cu338   2.010       .  S
O332        C342   1.279       .  A
O333       Cu338   2.014       .  S
O333        C343   1.278       .  A
O334       Cu339   2.002       .  S
O334        C343   1.277       .  A
O335       Cu339   2.009       .  S
O335        C342   1.277       .  A
O336       Cu339   2.017       .  S
O336        C341   1.280       .  A
O337       Cu339   2.015       .  S
O337        C340   1.278       .  A
Cu338      Cu339   2.373       .  S
C340        C581   1.475       .  S
C341        C605   1.482       .  S
C342        C620   1.478       .  S
C343        C593   1.478       .  S
O344       Cu352   2.002       .  S
O344        C354   1.277       .  A
O345       Cu352   2.010       .  S
O345        C355   1.277       .  A
O346       Cu352   2.019       .  S
O346        C356   1.279       .  A
O347       Cu352   2.014       .  S
O347        C357   1.277       .  A
O348       Cu353   2.014       .  S
O348        C357   1.279       .  A
O349       Cu353   2.019       .  S
O349        C356   1.278       .  A
O350       Cu353   2.010       .  S
O350        C355   1.278       .  A
O351       Cu353   2.028       .  S
O351        C354   1.280       .  A
Cu352      Cu353   2.374       .  S
C354        C629   1.480       .  S
C355        C560   1.473       .  S
C356        C545   1.480       .  S
C357        C569   1.476       .  S
C358        C359   1.404       .  A
C358        C363   1.404   1_545  A
C358        C533   1.479       .  S
C359        C360   1.403   1_545  A
C359        H364   1.082       .  S
C360        C361   1.404       .  A
C360        C992   1.495       .  S
C361        C362   1.407       .  A
C361        H365   1.083       .  S
C362        C363   1.407       .  A
C362        C548   1.491       .  S
C363        H366   1.083       .  S
O367       Cu375   2.017       .  S
O367        C377   1.280       .  A
O368       Cu375   2.018       .  S
O368        C378   1.278       .  A
O369       Cu375   2.014       .  S
O369        C379   1.277       .  A
O370       Cu375   2.015       .  S
O370        C380   1.278       .  A
O371       Cu376   2.015       .  S
O371        C380   1.279       .  A
O372       Cu376   2.015       .  S
O372        C379   1.278       .  A
O373       Cu376   2.006       .  S
O373        C378   1.278       .  A
O374       Cu376   2.004       .  S
O374        C377   1.276       .  A
Cu375      Cu376   2.374       .  S
C377        C536   1.479       .  S
C378        C509   1.480       .  S
C379        C497   1.472       .  S
C380        C521   1.479       .  S
C381        C382   1.408       .  A
C381        C386   1.404   1_545  A
C381        C485   1.485       .  S
C382        C383   1.406   1_545  A
C382        H387   1.082       .  S
C383        C384   1.405       .  A
C383        C656   1.500       .  S
C384        C385   1.407       .  A
C384        H388   1.083       .  S
C385        C386   1.407       .  A
C385        C584   1.495       .  S
C386        H389   1.082       .  S
C390        C391   1.405       .  A
C390        C395   1.404       .  A
C390        C500   1.478       .  S
C391        C392   1.404   1_655  A
C391        H396   1.084       .  S
C392        C393   1.401       .  A
C392        C644   1.483       .  S
C393        C394   1.400       .  A
C393        H397   1.084       .  S
C394        C395   1.403   1_455  A
C394        C473   1.474       .  S
C395        H398   1.084       .  S
O399       Cu407   2.011       .  S
O399        C409   1.276       .  A
O400       Cu407   2.007       .  S
O400        C410   1.277       .  A
O401       Cu407   2.021       .  S
O401        C411   1.279       .  A
O402       Cu407   2.014       .  S
O402        C412   1.279       .  A
O403       Cu408   2.009       .  S
O403        C412   1.276       .  A
O404       Cu408   2.008       .  S
O404        C411   1.276       .  A
O405       Cu408   2.018       .  S
O405        C410   1.278       .  A
O406       Cu408   2.009       .  S
O406        C409   1.280       .  A
Cu407      Cu408   2.375       .  S
C409        C488   1.482       .  S
C410        C461   1.470       .  S
C411        C476   1.472       .  S
C412        C449   1.473       .  S
C413        C414   1.400       .  A
C413        C418   1.397       .  A
C413        C920   1.478       .  S
C414        C415   1.405       .  A
C414        H419   1.084       .  S
C415        C416   1.410       .  A
C415        C524   1.484       .  S
C416        C417   1.409       .  A
C416        H420   1.084       .  S
C417        C418   1.403       .  A
C417        C452   1.487       .  S
C418        H421   1.084       .  S
C422        C423   1.401       .  A
C422        C427   1.404       .  A
C422        C608   1.482       .  S
C423        C424   1.404       .  A
C423        H428   1.084       .  S
C424        C425   1.405       .  A
C424        C893   1.491       .  S
C425        C426   1.406       .  A
C425        H429   1.083       .  S
C426        C427   1.405       .  A
C426        C464   1.480       .  S
C427        H430   1.084       .  S
C431        C432   1.402       .  A
C431        C436   1.409       .  A
C431        C572   1.490       .  S
C432        C433   1.395       .  A
C432        H437   1.084       .  S
C433        C434   1.402       .  A
C433        C968   1.483       .  S
C434        C435   1.411       .  A
C434        H438   1.082       .  S
C435        C436   1.414       .  A
C435        C512   1.501       .  S
C436        H439   1.083       .  S
C440        C441   1.402       .  A
C440        C445   1.404       .  A
C440        C557   1.474       .  S
C441        C442   1.401       .  A
C441        H446   1.084       .  S
C442        C443   1.401       .  A
C442        C944   1.477       .  S
C443        C444   1.403       .  A
C443        H447   1.084       .  S
C444        C445   1.405       .  A
C444        C596   1.481       .  S
C445        H448   1.084       .  S
C449        C450   1.400       .  A
C449        C454   1.413       .  A
C450        C451   1.397       .  A
C450        H459   1.084       .  S
C451        C452   1.417       .  A
C451        S455   1.805       .  S
C452        C453   1.406       .  A
C453        C454   1.404       .  A
C453        H460   1.083       .  S
C454        S456   1.804       .  S
S455        H458   1.407       .  S
S456        H457   1.406       .  S
C461        C462   1.400       .  A
C461        C466   1.411       .  A
C462        C463   1.398       .  A
C462        H471   1.084       .  S
C463        C464   1.414       .  A
C463        S467   1.804       .  S
C464        C465   1.405       .  A
C465        C466   1.403       .  A
C465        H472   1.084       .  S
C466        S468   1.800       .  S
S467        H470   1.406       .  S
S468        H469   1.405       .  S
C473        C474   1.401       .  A
C473        C478   1.414       .  A
C474        C475   1.397       .  A
C474        H483   1.084       .  S
C475        C476   1.412       .  A
C475        S479   1.801       .  S
C476        C477   1.402       .  A
C477        C478   1.401       .  A
C477        H484   1.080       .  S
C478        S480   1.805       .  S
S479        H482   1.403       .  S
S480        H481   1.401       .  S
C485        C486   1.403       .  A
C485        C490   1.412       .  A
C486        C487   1.405       .  A
C486        H495   1.083       .  S
C487        C488   1.421       .  A
C487        S491   1.805       .  S
C488        C489   1.402       .  A
C489        C490   1.394       .  A
C489        H496   1.084       .  S
C490        S492   1.802       .  S
S491        H494   1.400       .  S
S492        H493   1.407       .  S
C497        C498   1.403       .  A
C497        C502   1.413       .  A
C498        C499   1.399       .  A
C498        H507   1.082       .  S
C499        C500   1.411       .  A
C499        S503   1.804       .  S
C500        C501   1.403       .  A
C501        C502   1.402       .  A
C501        H508   1.083       .  S
C502        S504   1.803       .  S
S503        H506   1.406       .  S
S504        H505   1.403       .  S
C509        C510   1.401       .  A
C509        C514   1.414       .  A
C510        C511   1.400       .  A
C510        H519   1.083       .  S
C511        C512   1.418       .  A
C511        S515   1.806       .  S
C512        C513   1.410       .  A
C513        C514   1.405       .  A
C513        H520   1.083       .  S
C514        S516   1.804       .  S
S515        H518   1.407       .  S
S516        H517   1.400       .  S
C521        C522   1.405       .  A
C521        C526   1.412       .  A
C522        C523   1.403       .  A
C522        H531   1.084       .  S
C523        C524   1.413       .  A
C523        S527   1.804       .  S
C524        C525   1.405       .  A
C525        C526   1.400       .  A
C525        H532   1.084       .  S
C526        S528   1.804       .  S
S527        H530   1.406       .  S
S528        H529   1.407       .  S
C533        C534   1.401       .  A
C533        C538   1.413       .  A
C534        C535   1.403       .  A
C534        H543   1.084       .  S
C535        C536   1.418       .  A
C535        S539   1.803       .  S
C536        C537   1.401       .  A
C537        C538   1.396       .  A
C537        H544   1.084       .  S
C538        S540   1.803       .  S
S539        H542   1.403       .  S
S540        H541   1.406       .  S
C545        C546   1.404       .  A
C545        C550   1.407       .  A
C546        C547   1.408       .  A
C546        H555   1.083       .  S
C547        C548   1.419       .  A
C547        S551   1.802       .  S
C548        C549   1.404       .  A
C549        C550   1.391       .  A
C549        H556   1.084       .  S
C550        S552   1.791       .  S
S551        H554   1.406       .  S
S552        H553   1.407       .  S
C557        C558   1.403       .  A
C557        C562   1.412       .  A
C558        C559   1.399       .  A
C558        H567   1.084       .  S
C559        C560   1.410       .  A
C559        S563   1.803       .  S
C560        C561   1.404       .  A
C561        C562   1.400       .  A
C561        H568   1.084       .  S
C562        S564   1.805       .  S
S563        H566   1.407       .  S
S564        H565   1.405       .  S
C569        C570   1.404       .  A
C569        C574   1.412       .  A
C570        C571   1.405       .  A
C570        H579   1.084       .  S
C571        C572   1.418       .  A
C571        S575   1.803       .  S
C572        C573   1.405       .  A
C573        C574   1.395       .  A
C573        H580   1.084       .  S
C574        S576   1.803       .  S
S575        H578   1.406       .  S
S576        H577   1.400       .  S
C581        C582   1.403       .  A
C581        C586   1.412       .  A
C582        C583   1.404       .  A
C582        H591   1.084       .  S
C583        C584   1.419       .  A
C583        S587   1.803       .  S
C584        C585   1.408       .  A
C585        C586   1.395       .  A
C585        H592   1.084       .  S
C586        S588   1.806       .  S
S587        H590   1.407       .  S
S588        H589   1.401       .  S
C593        C594   1.405       .  A
C593        C598   1.413       .  A
C594        C595   1.401       .  A
C594        H603   1.083       .  S
C595        C596   1.413       .  A
C595        S599   1.804       .  S
C596        C597   1.404       .  A
C597        C598   1.397       .  A
C597        H604   1.084       .  S
C598        S600   1.804       .  S
S599        H602   1.406       .  S
S600        H601   1.407       .  S
C605        C606   1.403       .  A
C605        C610   1.418       .  A
C606        C607   1.398       .  A
C606        H615   1.084       .  S
C607        C608   1.415       .  A
C607        S611   1.805       .  S
C608        C609   1.401       .  A
C609        C610   1.401       .  A
C609        H616   1.084       .  S
C610        S612   1.802       .  S
S611        H614   1.406       .  S
S612        H613   1.406       .  S
C617        C618   1.403       .  A
C617        C622   1.414       .  A
C618        C619   1.402       .  A
C618        H627   1.084       .  S
C619        C620   1.417       .  A
C619        S623   1.805       .  S
C620        C621   1.403       .  A
C621        C622   1.397       .  A
C621        H628   1.084       .  S
C622        S624   1.804       .  S
S623        H626   1.403       .  S
S624        H625   1.407       .  S
C629        C630   1.398       .  A
C629        C634   1.413       .  A
C630        C631   1.391       .  A
C630        H639   1.077       .  S
C631        C632   1.416       .  A
C631        S635   1.807       .  S
C632        C633   1.411       .  A
C633        C634   1.408       .  A
C633        H640   1.083       .  S
C634        S636   1.802       .  S
S635        H638   1.407       .  S
S636        H637   1.407       .  S
C641        C642   1.402   1_455  A
C641        C646   1.415       .  A
C642        C643   1.404       .  A
C642        H651   1.083       .  S
C643        C644   1.416   1_655  A
C643        S647   1.803       .  S
C644        C645   1.402       .  A
C645        C646   1.394       .  A
C645        H652   1.084       .  S
C646        S648   1.805       .  S
S647        H650   1.406       .  S
S648        H649   1.407       .  S
C653        C654   1.400   1_565  A
C653        C658   1.408       .  A
C654        C655   1.401       .  A
C654        H663   1.083       .  S
C655        C656   1.419   1_545  A
C655        S659   1.803       .  S
C656        C657   1.412       .  A
C657        C658   1.401       .  A
C657        H664   1.083       .  S
C658        S660   1.802       .  S
S659        H662   1.407       .  S
S660        H661   1.403       .  S
C665        C666   1.408   1_565  A
C665        C670   1.416       .  A
C666        C667   1.399       .  A
C666        H675   1.084       .  S
C667        C668   1.409   1_545  A
C667        S671   1.800       .  S
C668        C669   1.403       .  A
C669        C670   1.398       .  A
C669        H676   1.084       .  S
C670        S672   1.805       .  S
S671        H674   1.402       .  S
S672        H673   1.407       .  S
C677        C678   1.405       .  A
C677        C682   1.411       .  A
C678        C679   1.405       .  A
C678        H687   1.084       .  S
C679        C680   1.419       .  A
C679        S683   1.803       .  S
C680        C681   1.408       .  A
C681        C682   1.397       .  A
C681        H688   1.084       .  S
C682        S684   1.804       .  S
S683        H686   1.406       .  S
S684        H685   1.406       .  S
C689        C690   1.401       .  A
C689        C694   1.417       .  A
C690        C691   1.397       .  A
C690        H699   1.080       .  S
C691        C692   1.410       .  A
C691        S695   1.805       .  S
C692        C693   1.402       .  A
C693        C694   1.404       .  A
C693        H700   1.084       .  S
C694        S696   1.807       .  S
S695        H698   1.405       .  S
S696        H697   1.400       .  S
C701        C702   1.402       .  A
C701        C706   1.412       .  A
C702        C703   1.403       .  A
C702        H711   1.083       .  S
C703        C704   1.419       .  A
C703        S707   1.803       .  S
C704        C705   1.402       .  A
C705        C706   1.397       .  A
C705        H712   1.084       .  S
C706        S708   1.800       .  S
S707        H710   1.399       .  S
S708        H709   1.406       .  S
C713        C714   1.405       .  A
C713        C718   1.418   1_455  A
C714        C715   1.393       .  A
C714        H723   1.083       .  S
C715        C716   1.412       .  A
C715        S719   1.805       .  S
C716        C717   1.402   1_455  A
C717        C718   1.405       .  A
C717        H724   1.083       .  S
C718        S720   1.803       .  S
S719        H722   1.407       .  S
S720        H721   1.407       .  S
C725        C726   1.407       .  A
C725        C730   1.415       .  A
C726        C727   1.403       .  A
C726        H735   1.084       .  S
C727        C728   1.412       .  A
C727        S731   1.803       .  S
C728        C729   1.403       .  A
C729        C730   1.396       .  A
C729        H736   1.084       .  S
C730        S732   1.805       .  S
S731        H734   1.406       .  S
S732        H733   1.403       .  S
C737        C738   1.401       .  A
C737        C742   1.412       .  A
C738        C739   1.398       .  A
C738        H747   1.084       .  S
C739        C740   1.416       .  A
C739        S743   1.805       .  S
C740        C741   1.407       .  A
C741        C742   1.404       .  A
C741        H748   1.083       .  S
C742        S744   1.803       .  S
S743        H746   1.407       .  S
S744        H745   1.405       .  S
C749        C750   1.399       .  A
C749        C754   1.413       .  A
C750        C751   1.400       .  A
C750        H759   1.084       .  S
C751        C752   1.414       .  A
C751        S755   1.796       .  S
C752        C753   1.401       .  A
C753        C754   1.400       .  A
C753        H760   1.083       .  S
C754        S756   1.803       .  S
S755        H758   1.406       .  S
S756        H757   1.405       .  S
C761        C762   1.406       .  A
C761        C766   1.423       .  A
C762        C763   1.396       .  A
C762        H771   1.084       .  S
C763        C764   1.415       .  A
C763        S767   1.805       .  S
C764        C765   1.403       .  A
C765        C766   1.403       .  A
C765        H772   1.083       .  S
C766        S768   1.802       .  S
S767        H770   1.407       .  S
S768        H769   1.397       .  S
C773        C774   1.402       .  A
C773        C778   1.412       .  A
C774        C775   1.401       .  A
C774        H783   1.084       .  S
C775        C776   1.414       .  A
C775        S779   1.803       .  S
C776        C777   1.401       .  A
C777        C778   1.397       .  A
C777        H784   1.084       .  S
C778        S780   1.802       .  S
S779        H782   1.403       .  S
S780        H781   1.406       .  S
C785        C786   1.401       .  A
C785        C790   1.409       .  A
C786        C787   1.401       .  A
C786        H795   1.083       .  S
C787        C788   1.416       .  A
C787        S791   1.804       .  S
C788        C789   1.404       .  A
C789        C790   1.401       .  A
C789        H796   1.083       .  S
C790        S792   1.807       .  S
S791        H794   1.407       .  S
S792        H793   1.407       .  S
C797        C798   1.399       .  A
C797        C802   1.412       .  A
C798        C799   1.396       .  A
C798        H807   1.085       .  S
C799        C800   1.414       .  A
C799        S803   1.803       .  S
C800        C801   1.407       .  A
C801        C802   1.405       .  A
C801        H808   1.084       .  S
C802        S804   1.805       .  S
S803        H806   1.406       .  S
S804        H805   1.405       .  S
C809        C810   1.405       .  A
C809        C814   1.413       .  A
C810        C811   1.401       .  A
C810        H819   1.084       .  S
C811        C812   1.413       .  A
C811        S815   1.804       .  S
C812        C813   1.404       .  A
C813        C814   1.399       .  A
C813        H820   1.084       .  S
C814        S816   1.803       .  S
S815        H818   1.406       .  S
S816        H817   1.407       .  S
C821        C822   1.405       .  A
C821        C826   1.413       .  A
C822        C823   1.401       .  A
C822        H831   1.084       .  S
C823        C824   1.414       .  A
C823        S827   1.804       .  S
C824        C825   1.405       .  A
C825        C826   1.401       .  A
C825        H832   1.084       .  S
C826        S828   1.803       .  S
S827        H830   1.406       .  S
S828        H829   1.407       .  S
C833        C834   1.402       .  A
C833        C838   1.411       .  A
C834        C835   1.403       .  A
C834        H843   1.084       .  S
C835        C836   1.416       .  A
C835        S839   1.803       .  S
C836        C837   1.403       .  A
C837        C838   1.396       .  A
C837        H844   1.084       .  S
C838        S840   1.803       .  S
S839        H842   1.406       .  S
S840        H841   1.403       .  S
C845        C846   1.406       .  A
C845        C850   1.414       .  A
C846        C847   1.402       .  A
C846        H855   1.084       .  S
C847        C848   1.415       .  A
C847        S851   1.803       .  S
C848        C849   1.405       .  A
C849        C850   1.399       .  A
C849        H856   1.084       .  S
C850        S852   1.804       .  S
S851        H854   1.406       .  S
S852        H853   1.408       .  S
C857        C858   1.405       .  A
C857        C862   1.415       .  A
C858        C859   1.400       .  A
C858        H867   1.084       .  S
C859        C860   1.416       .  A
C859        S863   1.799       .  S
C860        C861   1.406       .  A
C861        C862   1.400       .  A
C861        H868   1.084       .  S
C862        S864   1.805       .  S
S863        H866   1.408       .  S
S864        H865   1.407       .  S
C869        C870   1.402       .  A
C869        C874   1.412       .  A
C870        C871   1.402       .  A
C870        H879   1.083       .  S
C871        C872   1.416       .  A
C871        S875   1.799       .  S
C872        C873   1.401       .  A
C873        C874   1.396       .  A
C873        H880   1.084       .  S
C874        S876   1.802       .  S
S875        H878   1.407       .  S
S876        H877   1.406       .  S
C881        C882   1.402       .  A
C881        C886   1.410       .  A
C882        C883   1.406       .  A
C882        H891   1.083       .  S
C883        C884   1.419       .  A
C883        S887   1.803       .  S
C884        C885   1.405       .  A
C885        C886   1.392       .  A
C885        H892   1.082       .  S
C886        S888   1.805       .  S
S887        H890   1.407       .  S
S888        H889   1.407       .  S
C893        C894   1.406       .  A
C893        C898   1.419       .  A
C894        C895   1.392       .  A
C894        H903   1.083       .  S
C895        C896   1.411       .  A
C895        S899   1.805       .  S
C896        C897   1.402       .  A
C897        C898   1.405       .  A
C897        H904   1.084       .  S
C898        S900   1.802       .  S
S899        H902   1.407       .  S
S900        H901   1.406       .  S
C905        C906   1.405       .  A
C905        C910   1.415       .  A
C906        C907   1.390       .  A
C906        H915   1.083       .  S
C907        C908   1.410       .  A
C907        S911   1.801       .  S
C908        C909   1.408       .  A
C909        C910   1.408       .  A
C909        H916   1.083       .  S
C910        S912   1.799       .  S
S911        H914   1.407       .  S
S912        H913   1.406       .  S
C917        C918   1.403       .  A
C917        C922   1.416       .  A
C918        C919   1.403       .  A
C918        H927   1.083       .  S
C919        C920   1.414       .  A
C919        S923   1.803       .  S
C920        C921   1.400       .  A
C921        C922   1.395       .  A
C921        H928   1.084       .  S
C922        S924   1.805       .  S
S923        H926   1.406       .  S
S924        H925   1.407       .  S
C929        C930   1.404       .  A
C929        C934   1.413       .  A
C930        C931   1.391       .  A
C930        H939   1.084       .  S
C931        C932   1.414       .  A
C931        S935   1.803       .  S
C932        C933   1.409       .  A
C933        C934   1.406       .  A
C933        H940   1.084       .  S
C934        S936   1.800       .  S
S935        H938   1.407       .  S
S936        H937   1.406       .  S
C941        C942   1.406       .  A
C941        C946   1.414       .  A
C942        C943   1.393       .  A
C942        H951   1.083       .  S
C943        C944   1.410       .  A
C943        S947   1.806       .  S
C944        C945   1.405       .  A
C945        C946   1.405       .  A
C945        H952   1.083       .  S
C946        S948   1.800       .  S
S947        H950   1.407       .  S
S948        H949   1.406       .  S
C953        C954   1.402       .  A
C953        C958   1.412       .  A
C954        C955   1.409       .  A
C954        H963   1.083       .  S
C955        C956   1.418       .  A
C955        S959   1.804       .  S
C956        C957   1.405       .  A
C957        C958   1.392       .  A
C957        H964   1.084       .  S
C958        S960   1.805       .  S
S959        H962   1.406       .  S
S960        H961   1.407       .  S
C965        C966   1.401       .  A
C965        C970   1.414       .  A
C966        C967   1.402       .  A
C966        H975   1.083       .  S
C967        C968   1.416       .  A
C967        S971   1.800       .  S
C968        C969   1.402       .  A
C969        C970   1.394       .  A
C969        H976   1.084       .  S
C970        S972   1.805       .  S
S971        H974   1.406       .  S
S972        H973   1.407       .  S
C977        C978   1.398       .  A
C977        C982   1.410   1_565  A
C978        C979   1.395       .  A
C978        H987   1.084       .  S
C979        C980   1.422       .  A
C979        S983   1.798       .  S
C980        C981   1.412   1_565  A
C981        C982   1.403       .  A
C981        H988   1.082       .  S
C982        S984   1.802       .  S
S983        H986   1.406       .  S
S984        H985   1.402       .  S
C989        C990   1.400   1_565  A
C989        C994   1.408       .  A
C990        C991   1.401       .  A
C990        H999   1.083       .  S
C991        C992   1.418   1_545  A
C991        S995   1.805       .  S
C992        C993   1.411       .  A
C993        C994   1.400       .  A
C993       H1000   1.084       .  S
C994        S996   1.803       .  S
S995        H998   1.407       .  S
S996        H997   1.403       .  S
C1001      C1002   1.404       .  A
C1001      C1006   1.412   1_455  A
C1002      C1003   1.393       .  A
C1002      H1011   1.084       .  S
C1003      C1004   1.412       .  A
C1003      S1007   1.802       .  S
C1004      C1005   1.408   1_455  A
C1005      C1006   1.406       .  A
C1005      H1012   1.084       .  S
C1006      S1008   1.801       .  S
S1007      H1010   1.407       .  S
S1008      H1009   1.406       .  S
C1013      C1014   1.403       .  A
C1013      C1018   1.419   1_655  A
C1014      C1015   1.394       .  A
C1014      H1023   1.083       .  S
C1015      C1016   1.413       .  A
C1015      S1019   1.805       .  S
C1016      C1017   1.401   1_655  A
C1017      C1018   1.404       .  A
C1017      H1024   1.083       .  S
C1018      S1020   1.803       .  S
S1019      H1022   1.407       .  S
S1020      H1021   1.407       .  S
