geometry optimzed in LAMMPS
_audit_creation_date              2020-11-30 
_audit_creation_method            'lammps2cif' 
_symmetry_space_group_name_H-M    'P1' 
_symmetry_Int_Tables_number       1 
_symmetry_cell_setting            triclinic 
loop_ 
_symmetry_equiv_pos_as_xyz 
  x,y,z 
_cell_length_a                    48.30580795 
_cell_length_b                    48.30195761719276 
_cell_length_c                    48.311990030031154 
_cell_angle_alpha                 89.96302191480643 
_cell_angle_beta                  90.02831367137141 
_cell_angle_gamma                 90.0019225691487 
loop_ 
_atom_site_label 
_atom_site_type_symbol 
_atom_site_fract_x 
_atom_site_fract_y 
_atom_site_fract_z 
_atom_site_charge 
Zr1        Zr  0.43071979  0.16979691  0.22699879     2.17500
O2          O  0.43414385  0.22013802  0.22948203    -0.50700
O3          O  0.39049932  0.16471070  0.25692019    -0.73900
O4          O  0.39446511  0.19257494  0.20073172    -0.80700
O5          O  0.49024531  0.16283910  0.27806600    -0.82500
O6          O  0.38412839  0.16649744  0.16280758    -0.78100
O7          O  0.45273409  0.18960510  0.26791426    -0.89700
O8          O  0.38122386  0.11874584  0.26130017    -0.75700
O9          O  0.40366369  0.13173958  0.21114453    -0.85200
O10         O  0.44434730  0.13107507  0.25429514    -0.84900
O11         O  0.44143520  0.16501325  0.17859673    -0.71600
O12         O  0.47939584  0.16423007  0.21837454    -0.83700
Zr13       Zr  0.47698220  0.08097589  0.18177327     2.26400
Zr14       Zr  0.41463965  0.12599119  0.16322467     2.06300
Zr15       Zr  0.49263135  0.12480764  0.24527704     2.10000
Zr16       Zr  0.41768424  0.09310807  0.23816796     1.78800
O17         O  0.53813350  0.14570175  0.25126160    -0.92500
O18         O  0.37482416  0.07029736  0.22448426    -0.40400
O19         O  0.46615741  0.08587164  0.23005543    -0.77000
O20         O  0.42815720  0.08649271  0.19028465    -0.95700
O21         O  0.46287761  0.11960376  0.15464336    -0.89000
O22         O  0.50389817  0.11927430  0.19735703    -0.91800
C23         C  0.37578280  0.14435269  0.26554755     1.01900
C24         C  0.47419306  0.18353244  0.28242981     1.14900
C25         C  0.38094337  0.18783020  0.17840787     1.05600
O26         O  0.36725561  0.10934844  0.15872776    -0.94000
O27         O  0.41468907  0.08523902  0.13305843    -0.89700
O28         O  0.45228612  0.05882445  0.14400717    -0.82900
C29         C  0.43026728  0.06383579  0.13001735     1.12300
O30         O  0.49792154  0.20745946  0.17251979    -0.96000
Zr31       Zr  0.48967057  0.15769261  0.17017285     1.88900
O32         O  0.50723503  0.08586141  0.14171587    -0.72600
O33         O  0.41640938  0.14328027  0.11588138    -0.51900
O34         O  0.47540873  0.18097918  0.12775843    -0.96500
O35         O  0.53868134  0.16853343  0.17608514    -0.53800
O36         O  0.51218604  0.13194987  0.13323940    -0.73100
C37         C  0.51605896  0.10637200  0.12728851     0.99200
O38         O  0.47725796  0.03066160  0.18675183    -0.61900
O39         O  0.49377737  0.10223254  0.29039879    -0.56700
O40         O  0.51839291  0.06212592  0.20392015    -0.93400
O41         O  0.52584087  0.08709685  0.24325390    -0.91800
O42         O  0.42359973  0.08137543  0.28682919    -0.92200
O43         O  0.41837356  0.04321766  0.24553573    -0.91000
C44         C  0.53164201  0.06743753  0.22638494     1.18100
H45         H  0.44083598  0.13432345  0.27371064     0.34000
H46         H  0.41817992  0.07020643  0.18438226     0.44900
H47         H  0.52343487  0.11593551  0.19482926     0.38400
H48         H  0.43613040  0.18153265  0.16866600     0.34900
H49         H  0.36527740  0.06607917  0.24212510     0.26700
H50         H  0.39740043  0.14059692  0.10868583     0.32600
H51         H  0.49245229  0.18232251  0.11646438     0.38500
H52         H  0.40490688  0.07580844  0.29313718     0.33000
H53         H  0.51094508  0.10912272  0.29923274     0.31800
H54         H  0.54606034  0.13638480  0.26771930     0.33500
H55         H  0.54885000  0.15204650  0.16941232     0.32500
H56         H  0.42532206  0.03547369  0.22788679     0.36500
H57         H  0.47913638  0.02729951  0.20689173     0.29200
H58         H  0.41595245  0.22659021  0.23638271     0.33500
H59         H  0.51148386  0.21159003  0.15771489     0.36300
H60         H  0.47864565  0.11094436  0.30111274     0.28900
H61         H  0.45811223  0.02462159  0.18263857     0.41800
H62         H  0.35736355  0.11722318  0.17484726     0.31800
H63         H  0.36352917  0.08513412  0.21597518     0.39500
H64         H  0.54162452  0.16855510  0.19636547     0.31300
H65         H  0.41842175  0.16359363  0.11770450     0.31400
H66         H  0.43504334  0.22656797  0.21003079     0.31600
Zr67       Zr  0.07977375  0.18101874  0.47673890     2.17500
O68         O  0.02952870  0.18220327  0.48157140    -0.50700
O69         O  0.08711120  0.14080015  0.50622232    -0.73900
O70         O  0.05768454  0.14410403  0.45084121    -0.80700
O71         O  0.08435268  0.24231340  0.52600680    -0.82500
O72         O  0.08467894  0.13336551  0.41369061    -0.78100
O73         O  0.06031658  0.20248849  0.51809325    -0.89700
O74         O  0.13349059  0.13388033  0.51064407    -0.75700
O75         O  0.11897341  0.15537163  0.46144381    -0.85200
O76         O  0.11796523  0.19730851  0.50322879    -0.84900
O77         O  0.08362889  0.19085010  0.42802223    -0.71600
O78         O  0.08286378  0.22967088  0.46667414    -0.83700
Zr79       Zr  0.16597370  0.23016599  0.42964418     2.26400
Zr80       Zr  0.12382000  0.16546433  0.41323805     2.06300
Zr81       Zr  0.12183948  0.24561260  0.49273041     2.10000
Zr82       Zr  0.15705277  0.17197368  0.48776623     1.78800
O83         O  0.09926529  0.29056826  0.49587979    -0.92500
O84         O  0.18353165  0.13108176  0.47465488    -0.40400
O85         O  0.16177134  0.22044872  0.47812143    -0.77000
O86         O  0.16287200  0.18144828  0.43951882    -0.95700
O87         O  0.12786020  0.21366238  0.40321306    -0.89000
O88         O  0.12664778  0.25586060  0.44456784    -0.91800
C89         C  0.10817837  0.12704118  0.51471937     1.01900
C90         C  0.06518325  0.22483872  0.53166987     1.14900
C91         C  0.06317551  0.13009934  0.42900374     1.05600
O92         O  0.14356880  0.11911894  0.41132648    -0.94000
O93         O  0.16355396  0.16735480  0.38186741    -0.89700
O94         O  0.18852046  0.20614993  0.39192028    -0.82900
C95         C  0.18414880  0.18385734  0.37824133     1.12300
O96         O  0.03888190  0.24699101  0.42177146    -0.96000
Zr97       Zr  0.08864108  0.23912559  0.41820983     1.88900
O98         O  0.15920817  0.25993631  0.38952470    -0.72600
O99         O  0.10596684  0.16363154  0.36612859    -0.51900
O100        O  0.06487580  0.22279951  0.37679539    -0.96500
O101        O  0.07619623  0.28795673  0.42191792    -0.53800
O102        O  0.11302244  0.26132538  0.38028007    -0.73100
C103        C  0.13833472  0.26685953  0.37460156     0.99200
O104        O  0.21635248  0.23206132  0.43402826    -0.61900
O105        O  0.14396569  0.24979213  0.53783817    -0.56700
O106        O  0.18400584  0.27208427  0.45104038    -0.93400
O107        O  0.15888373  0.27963870  0.49023768    -0.91800
O108        O  0.16710724  0.18022016  0.53648336    -0.92200
O109        O  0.20656014  0.17624579  0.49638074    -0.91000
C110        C  0.17846729  0.28552160  0.47327515     1.18100
H111        H  0.11501342  0.19419490  0.52276068     0.34000
H112        H  0.17954630  0.17213844  0.43361163     0.44900
H113        H  0.12924526  0.27544207  0.44152883     0.38400
H114        H  0.06733072  0.18461972  0.41828439     0.34900
H115        H  0.18788036  0.12170587  0.49236398     0.26700
H116        H  0.10744277  0.14389662  0.36079258     0.32600
H117        H  0.06393705  0.23912059  0.36441873     0.38500
H118        H  0.17501712  0.16256685  0.54327536     0.33000
H119        H  0.13484320  0.26590170  0.54661995     0.31800
H120        H  0.10698999  0.29907316  0.51285207     0.33500
H121        H  0.09272586  0.29842248  0.41582561     0.32500
H122        H  0.21271813  0.19126224  0.48386810     0.36500
H123        H  0.21993406  0.23401383  0.45411987     0.29200
H124        H  0.02415205  0.16351167  0.48807209     0.33500
H125        H  0.03378048  0.25818483  0.40535823     0.36300
H126        H  0.13732711  0.23363387  0.54855717     0.28900
H127        H  0.22302098  0.21315217  0.42980157     0.41800
H128        H  0.13443068  0.10885589  0.42653774     0.31800
H129        H  0.16989506  0.11877422  0.46557322     0.39500
H130        H  0.07494669  0.29150270  0.44205662     0.31300
H131        H  0.08583644  0.16701082  0.36795307     0.31400
H132        H  0.02223411  0.18351044  0.46245361     0.31600
Zr133      Zr  0.22658146  0.43233334  0.16899295     2.17500
O134        O  0.22866006  0.43489315  0.21936061    -0.50700
O135        O  0.25865002  0.39386963  0.16348942    -0.73900
O136        O  0.20281804  0.39340795  0.19001117    -0.80700
O137        O  0.27249583  0.49626853  0.16490702    -0.82500
O138        O  0.16768120  0.37985842  0.16156709    -0.78100
O139        O  0.26580089  0.45661511  0.18963348    -0.89700
O140        O  0.26407398  0.38672310  0.11726948    -0.75700
O141        O  0.21383851  0.40563611  0.12957643    -0.85200
O142        O  0.25326275  0.44973483  0.13141676    -0.84900
O143        O  0.17752167  0.43906158  0.16358361    -0.71600
O144        O  0.21385527  0.48022909  0.16483416    -0.83700
Zr145      Zr  0.17916709  0.47791704  0.08074650     2.26400
Zr146      Zr  0.16530200  0.41274431  0.12322470     2.06300
Zr147      Zr  0.24012049  0.49723159  0.12645516     2.10000
Zr148      Zr  0.24034070  0.42330293  0.09216585     1.78800
O149        O  0.24100038  0.54227122  0.14898327    -0.92500
O150        O  0.23072721  0.38156124  0.06558763    -0.40400
O151        O  0.22809627  0.47110549  0.08624502    -0.77000
O152        O  0.19175797  0.42989781  0.08482300    -0.95700
O153        O  0.15258910  0.46019484  0.11823469    -0.89000
O154        O  0.19157244  0.50446516  0.12033354    -0.91800
C155        C  0.26812806  0.38034412  0.14270510     1.01900
C156        C  0.27835743  0.47956137  0.18471281     1.14900
C157        C  0.18248878  0.37762700  0.18355581     1.05600
O158        O  0.16519586  0.36692720  0.10227263    -0.94000
O159        O  0.13419033  0.41275186  0.08336257    -0.89700
O160        O  0.14258974  0.45187030  0.05826105    -0.82900
C161        C  0.12996136  0.42893260  0.06264871     1.12300
O162        O  0.16498475  0.49208659  0.20786456    -0.96000
Zr163      Zr  0.16508833  0.48658756  0.15768235     1.88900
O164        O  0.13809557  0.50649587  0.08590279    -0.72600
O165        O  0.11868893  0.40855368  0.14200785    -0.51900
O166        O  0.12284673  0.46835529  0.17837008    -0.96500
O167        O  0.16730441  0.53519494  0.17122534    -0.53800
O168        O  0.12783316  0.50828662  0.13184861    -0.73100
C169        C  0.12268152  0.51347418  0.10634982     0.99200
O170        O  0.18411890  0.47820950  0.03045298    -0.61900
O171        O  0.28526768  0.50241940  0.10457211    -0.56700
O172        O  0.19837901  0.52126781  0.06315344    -0.93400
O173        O  0.23588472  0.53161177  0.08989202    -0.91800
O174        O  0.28920067  0.43283445  0.08397924    -0.92200
O175        O  0.25049871  0.42763637  0.04297487    -0.91000
C176        C  0.21931231  0.53635910  0.06966002     1.18100
H177        H  0.27284236  0.44777073  0.13500231     0.34000
H178        H  0.18674605  0.42010888  0.06812432     0.44900
H179        H  0.18744806  0.52384408  0.11759428     0.38400
H180        H  0.16774739  0.43225357  0.17963055     0.34900
H181        H  0.24917675  0.37367679  0.06139303     0.26700
H182        H  0.11386919  0.38877756  0.13957931     0.32600
H183        H  0.10986617  0.48421006  0.17882717     0.38500
H184        H  0.29714037  0.41483665  0.07822137     0.33000
H185        H  0.29276710  0.51990298  0.11219129     0.31800
H186        H  0.25913863  0.55031343  0.14384704     0.33500
H187        H  0.16089255  0.54580541  0.15489975     0.32500
H188        H  0.23291759  0.43406101  0.03461247     0.36500
H189        H  0.20388896  0.48247352  0.02710387     0.29200
H190        H  0.23698737  0.41715371  0.22540079     0.33500
H191        H  0.14894729  0.50413562  0.21208958     0.36300
H192        H  0.29696005  0.48777167  0.11287509     0.28900
H193        H  0.18234555  0.45861130  0.02472082     0.41800
H194        H  0.18130845  0.35734207  0.11056439     0.31800
H195        H  0.22259041  0.36854222  0.07916093     0.39500
H196        H  0.18733473  0.53931956  0.17252745     0.31300
H197        H  0.12086319  0.41087750  0.16225236     0.31400
H198        H  0.20916963  0.43401800  0.22564900     0.31600
Zr199      Zr  0.97785928  0.41643454  0.81771845     2.17500
O200        O  0.98516155  0.46641315  0.81613090    -0.50700
O201        O  0.00727549  0.40926102  0.85801129    -0.73900
O202        O  0.95184321  0.44005329  0.85365592    -0.80700
O203        O  0.02796257  0.40884167  0.75708704    -0.82500
O204        O  0.91334249  0.41477623  0.86391473    -0.78100
O205        O  0.01891645  0.43517861  0.79513796    -0.89700
O206        O  0.01054272  0.36299287  0.86617270    -0.75700
O207        O  0.96079068  0.37846846  0.84404165    -0.85200
O208        O  0.00367510  0.37699555  0.80337173    -0.84900
O209        O  0.92925372  0.41364747  0.80693169    -0.71600
O210        O  0.96891481  0.41186324  0.76903249    -0.83700
Zr211      Zr  0.92912062  0.32983782  0.77013540     2.26400
Zr212      Zr  0.91266865  0.37465509  0.83306771     2.06300
Zr213      Zr  0.99417590  0.37166257  0.75505337     2.10000
Zr214      Zr  0.98626763  0.33910309  0.82931285     1.78800
O215        O  0.99829518  0.39231494  0.70928581    -0.92500
O216        O  0.97127610  0.31659974  0.87187517    -0.40400
O217        O  0.97762628  0.33281364  0.78083526    -0.77000
O218        O  0.93817922  0.33442774  0.81889743    -0.95700
O219        O  0.90356031  0.36928648  0.78480808    -0.89000
O220        O  0.94609292  0.36796223  0.74386504    -0.91800
C221        C  0.01544948  0.38834200  0.87219176     1.01900
C222        C  0.03299037  0.42915610  0.77341693     1.14900
C223        C  0.92941685  0.43573979  0.86717123     1.05600
O224        O  0.90816644  0.35786592  0.88040670    -0.94000
O225        O  0.88130289  0.33490159  0.83321521    -0.89700
O226        O  0.89064606  0.30896696  0.79489765    -0.82900
C227        C  0.87727898  0.31395208  0.81728589     1.12300
O228        O  0.92582225  0.45699907  0.75164554    -0.96000
Zr229      Zr  0.92057402  0.40727041  0.75862980     1.88900
O230        O  0.89009989  0.33703311  0.73899162    -0.72600
O231        O  0.86593556  0.39338675  0.83076935    -0.51900
O232        O  0.87851288  0.43187790  0.77167720    -0.96500
O233        O  0.92793591  0.41914370  0.71011135    -0.53800
O234        O  0.88337915  0.38347223  0.73461967    -0.73100
C235        C  0.87672880  0.35820095  0.73006099     0.99200
O236        O  0.93052094  0.27922595  0.76947944    -0.61900
O237        O  0.03918931  0.34896429  0.75312420    -0.56700
O238        O  0.95075853  0.31064703  0.72872088    -0.93400
O239        O  0.99146259  0.33363912  0.72226315    -0.91800
O240        O  0.03434487  0.32545596  0.82273841    -0.92200
O241        O  0.99119476  0.28898119  0.82737745    -0.91000
C242        C  0.97371738  0.31489425  0.71599063     1.18100
H243        H  0.02322172  0.37950289  0.80682050     0.34000
H244        H  0.93177379  0.31821544  0.82869266     0.44900
H245        H  0.94345138  0.36497173  0.72427433     0.38400
H246        H  0.91982841  0.43040319  0.81237663     0.34900
H247        H  0.98862548  0.31085802  0.88116943     0.26700
H248        H  0.85904874  0.39244250  0.85004545     0.32600
H249        H  0.86814900  0.43435056  0.75416089     0.38500
H250        H  0.04055224  0.31913391  0.84122816     0.33000
H251        H  0.04691892  0.35431182  0.73491063     0.31800
H252        H  0.01679884  0.38655359  0.70263330     0.33500
H253        H  0.92111530  0.40308367  0.69937533     0.32500
H254        H  0.97415271  0.28250149  0.81800851     0.36500
H255        H  0.95008447  0.27433503  0.76580952     0.29200
H256        H  0.99158758  0.47164242  0.83488346     0.33500
H257        H  0.91143134  0.46230170  0.73803367     0.36300
H258        H  0.05084059  0.35887783  0.76676109     0.28900
H259        H  0.92771953  0.27336732  0.78891948     0.41800
H260        H  0.92364818  0.36659623  0.89062185     0.31800
H261        H  0.96403501  0.33183000  0.88350754     0.39500
H262        H  0.94827509  0.41874798  0.70769838     0.31300
H263        H  0.86846977  0.41340102  0.82714953     0.31400
H264        H  0.96646529  0.47464320  0.81439622     0.31600
Zr265      Zr  0.77098107  0.93125143  0.33082806     2.17500
O266        O  0.76499958  0.93403433  0.28075931    -0.50700
O267        O  0.74187517  0.89046911  0.33716093    -0.73900
O268        O  0.79772413  0.89592491  0.30718789    -0.80700
O269        O  0.71987772  0.99071745  0.33805079    -0.82500
O270        O  0.83573803  0.88575331  0.33323935    -0.78100
O271        O  0.72925839  0.95255835  0.31198797    -0.89700
O272        O  0.73820099  0.88189544  0.38330527    -0.75700
O273        O  0.78763008  0.90470054  0.36892344    -0.85200
O274        O  0.74448273  0.94537368  0.36985535    -0.84900
O275        O  0.81945126  0.94253564  0.33447862    -0.71600
O276        O  0.77971901  0.98004574  0.33554918    -0.83700
Zr277      Zr  0.81777050  0.97893077  0.41816904     2.26400
Zr278      Zr  0.83554607  0.91627895  0.37356608     2.06300
Zr279      Zr  0.75358853  0.99378792  0.37525124     2.10000
Zr280      Zr  0.76129690  0.91918643  0.40785807     1.78800
O281        O  0.74823522  0.03902750  0.35366331    -0.92500
O282        O  0.77494968  0.87716692  0.43230380    -0.40400
O283        O  0.76949292  0.96778258  0.41425495    -0.77000
O284        O  0.80930803  0.92999899  0.41349439    -0.95700
O285        O  0.84424247  0.96456397  0.37922551    -0.89000
O286        O  0.80152171  0.00535080  0.37982416    -0.91800
C287        C  0.73359253  0.87600793  0.35785987     1.01900
C288        C  0.71487181  0.97410445  0.31796014     1.14900
C289        C  0.82020017  0.88261247  0.31187275     1.05600
O290        O  0.83970129  0.86933633  0.39141555    -0.94000
O291        O  0.86696282  0.91723463  0.41319302    -0.89700
O292        O  0.85649229  0.95504229  0.43943348    -0.82900
C293        C  0.87047342  0.93308228  0.43427360     1.12300
O294        O  0.82474160  0.99717435  0.29106541    -0.96000
Zr295      Zr  0.82797866  0.99084507  0.34106276     1.88900
O296        O  0.85712916  0.00971818  0.41222901    -0.72600
O297        O  0.88257140  0.91677673  0.35541470    -0.51900
O298        O  0.87099701  0.97782094  0.31814288    -0.96500
O299        O  0.82103006  0.03946491  0.32914245    -0.53800
O300        O  0.86474259  0.01455186  0.36599339    -0.73100
C301        C  0.87097081  0.01873347  0.39145134     0.99200
O302        O  0.81453012  0.98006609  0.46861711    -0.61900
O303        O  0.70896372  0.99584695  0.39865336    -0.56700
O304        O  0.79566246  0.02030416  0.43702031    -0.93400
O305        O  0.75606302  0.02758305  0.41240386    -0.91800
O306        O  0.71253620  0.92517738  0.41910128    -0.92200
O307        O  0.75371428  0.92172159  0.45762989    -0.91000
C308        C  0.77315201  0.03352167  0.43185234     1.18100
H309        H  0.72500586  0.94180502  0.36701858     0.34000
H310        H  0.81568317  0.92025759  0.42975791     0.44900
H311        H  0.80402454  0.02493578  0.38290644     0.38400
H312        H  0.82918846  0.93722091  0.31786800     0.34900
H313        H  0.75733323  0.86748545  0.43633972     0.26700
H314        H  0.88807889  0.89704356  0.35469278     0.32600
H315        H  0.88106319  0.99544995  0.31527464     0.38500
H316        H  0.70655356  0.90691116  0.42624146     0.33000
H317        H  0.70035284  0.01319571  0.39192537     0.31800
H318        H  0.73009817  0.04586996  0.36030980     0.33500
H319        H  0.82738000  0.05011619  0.34545300     0.32500
H320        H  0.77103056  0.92975674  0.46509494     0.36500
H321        H  0.79449303  0.98167838  0.47264148     0.29200
H322        H  0.75855307  0.91545766  0.27495827     0.33500
H323        H  0.83937567  0.01067537  0.28617821     0.36300
H324        H  0.69777397  0.98092863  0.39015915     0.28900
H325        H  0.81919200  0.96112273  0.47490340     0.41800
H326        H  0.82374439  0.85927221  0.38340529     0.31800
H327        H  0.78400378  0.86556082  0.41806191     0.39500
H328        H  0.80068961  0.04193083  0.32893497     0.31300
H329        H  0.88056903  0.92232416  0.33578684     0.31400
H330        H  0.78392295  0.93575862  0.27307530     0.31600
Zr331      Zr  0.06817259  0.83403032  0.72818440     2.17500
O332        O  0.06696555  0.78407009  0.73541593    -0.50700
O333        O  0.10860542  0.84118556  0.75722454    -0.73900
O334        O  0.10414116  0.81036209  0.70212408    -0.80700
O335        O  0.00696140  0.84117887  0.77794494    -0.82500
O336        O  0.11552872  0.83615768  0.66430614    -0.78100
O337        O  0.04590225  0.81581862  0.76977285    -0.89700
O338        O  0.11679241  0.88744697  0.76014792    -0.75700
O339        O  0.09453088  0.87226147  0.71166788    -0.85200
O340        O  0.05294466  0.87314759  0.75396237    -0.84900
O341        O  0.05808510  0.83688387  0.67947508    -0.71600
O342        O  0.01950853  0.83818451  0.71877035    -0.83700
Zr343      Zr  0.02041765  0.92031308  0.67947565     2.26400
Zr344      Zr  0.08423859  0.87605639  0.66339407     2.06300
Zr345      Zr  0.00464566  0.87815912  0.74397637     2.10000
Zr346      Zr  0.07889439  0.91125324  0.73723736     1.78800
O347        O  0.95904836  0.85708590  0.74799378    -0.92500
O348        O  0.12013362  0.93699680  0.72391281    -0.40400
O349        O  0.03041934  0.91730329  0.72808731    -0.77000
O350        O  0.06918818  0.91601627  0.68891664    -0.95700
O351        O  0.03599256  0.88112840  0.65401464    -0.89000
O352        O  0.99419740  0.88184596  0.69572947    -0.91800
C353        C  0.12292270  0.86210296  0.76504617     1.01900
C354        C  0.02389251  0.82151376  0.78358992     1.14900
C355        C  0.11820148  0.81485685  0.68006781     1.05600
O356        O  0.13100735  0.89465520  0.66022008    -0.94000
O357        O  0.08315711  0.91515011  0.63117562    -0.89700
O358        O  0.04496892  0.94120626  0.64090111    -0.82900
C359        C  0.06707625  0.93600498  0.62714263     1.12300
O360        O  0.00495582  0.79276043  0.67462867    -0.96000
Zr361      Zr  0.00987993  0.84283180  0.67027355     1.88900
O362        O  0.99007675  0.91314317  0.63987856    -0.72600
O363        O  0.08465434  0.85641586  0.61692712    -0.51900
O364        O  0.02343922  0.81942085  0.62772657    -0.96500
O365        O  0.96159574  0.82981201  0.67716147    -0.53800
O366        O  0.98670252  0.86670803  0.63256360    -0.73100
C367        C  0.98199448  0.89198701  0.62599109     0.99200
O368        O  0.02028673  0.97084859  0.68189318    -0.61900
O369        O  0.00206704  0.90083173  0.78899450    -0.56700
O370        O  0.97829788  0.93913073  0.70039254    -0.93400
O371        O  0.97095992  0.91545204  0.74055693    -0.91800
O372        O  0.07225122  0.92152208  0.78612890    -0.92200
O373        O  0.07512274  0.96092031  0.74488806    -0.91000
C374        C  0.96493863  0.93441418  0.72292992     1.18100
H375        H  0.05619808  0.87052186  0.77352126     0.34000
H376        H  0.07885724  0.93232544  0.68255760     0.44900
H377        H  0.97461889  0.88461920  0.69272219     0.38400
H378        H  0.06372712  0.82020360  0.67004154     0.34900
H379        H  0.13010217  0.94037224  0.74150505     0.26700
H380        H  0.10418572  0.85780012  0.61086404     0.32600
H381        H  0.00588400  0.81603360  0.61769480     0.38500
H382        H  0.09079315  0.92709764  0.79285965     0.33000
H383        H  0.98418820  0.89468010  0.79690936     0.31800
H384        H  0.95128893  0.86470979  0.76535459     0.33500
H385        H  0.95060291  0.84499081  0.66886346     0.32500
H386        H  0.06539430  0.96797319  0.72827783     0.36500
H387        H  0.01614750  0.97532960  0.70145865     0.29200
H388        H  0.08595607  0.77881243  0.74109650     0.33500
H389        H  0.99102375  0.78728094  0.66062475     0.36300
H390        H  0.01624667  0.89156530  0.80054634     0.28900
H391        H  0.03989647  0.97640812  0.67972328     0.41800
H392        H  0.14129987  0.88568700  0.67552044     0.31800
H393        H  0.13174363  0.92334108  0.71399358     0.39500
H394        H  0.95854345  0.83161600  0.69733465     0.31300
H395        H  0.08147637  0.83633931  0.61959854     0.31400
H396        H  0.06451859  0.77594127  0.71676202     0.34000
Zr397      Zr  0.33001085  0.77023449  0.93007694     2.17500
O398        O  0.27968920  0.76607791  0.93185140    -0.50700
O399        O  0.33709398  0.73948713  0.89072762    -0.73900
O400        O  0.30767944  0.79567086  0.89291305    -0.80700
O401        O  0.33520866  0.72187680  0.99243990    -0.82500
O402        O  0.33451322  0.83284561  0.88171093    -0.78100
O403        O  0.30996457  0.73013243  0.95342135    -0.89700
O404        O  0.38343657  0.73482915  0.88374121    -0.75700
O405        O  0.36895342  0.78553133  0.90402454    -0.85200
O406        O  0.36843694  0.74388369  0.94616529    -0.84900
O407        O  0.33392759  0.81907329  0.93926430    -0.71600
O408        O  0.33388426  0.78070194  0.97850222    -0.83700
Zr409      Zr  0.41667135  0.81832612  0.97820728     2.26400
Zr410      Zr  0.37382984  0.83384226  0.91358032     2.06300
Zr411      Zr  0.37303997  0.75484680  0.99425434     2.10000
Zr412      Zr  0.40728775  0.75945566  0.92048288     1.78800
O413        O  0.35072924  0.75163428  0.03929139    -0.92500
O414        O  0.43143040  0.77172124  0.87792231    -0.40400
O415        O  0.41276515  0.76963043  0.96880104    -0.77000
O416        O  0.41301886  0.80778245  0.92960581    -0.95700
O417        O  0.37831490  0.84445190  0.96162556    -0.89000
O418        O  0.37751699  0.80319627  0.00401354    -0.91800
C419        C  0.35810149  0.73040087  0.87724624     1.01900
C420        C  0.31519946  0.71668345  0.97578199     1.14900
C421        C  0.31302272  0.81744303  0.87869949     1.05600
O422        O  0.39407765  0.83644733  0.86751012    -0.94000
O423        O  0.41359113  0.86496400  0.91390500    -0.89700
O424        O  0.43861100  0.85580865  0.95289163    -0.82900
C425        C  0.43425433  0.86888259  0.93019481     1.12300
O426        O  0.28907002  0.82641667  0.99181863    -0.96000
Zr427      Zr  0.33929018  0.82929461  0.98732342     1.88900
O428        O  0.40988345  0.85842139  0.00814128    -0.72600
O429        O  0.35558992  0.88085296  0.91232397    -0.51900
O430        O  0.31661028  0.87176086  0.97213859    -0.96500
O431        O  0.32518318  0.82391386  0.03547384    -0.53800
O432        O  0.36355705  0.86655555  0.01080926    -0.73100
C433        C  0.38885456  0.87269050  0.01595660     0.99200
O434        O  0.46718663  0.81577128  0.98030433    -0.61900
O435        O  0.39582805  0.70992271  0.99745459    -0.56700
O436        O  0.43468299  0.79692107  0.02043615    -0.93400
O437        O  0.40973143  0.75768409  0.02849146    -0.91800
O438        O  0.41882553  0.71106283  0.92883447    -0.92200
O439        O  0.45713404  0.75283447  0.92421527    -0.91000
C440        C  0.42923223  0.77478369  0.03418684     1.18100
H441        H  0.36546238  0.72431427  0.94327784     0.34000
H442        H  0.42958639  0.81358637  0.92003920     0.44900
H443        H  0.38010261  0.80639160  0.02357194     0.38400
H444        H  0.31756022  0.82874120  0.93309242     0.34900
H445        H  0.43702998  0.75378803  0.86972979     0.26700
H446        H  0.35740386  0.88662338  0.89273730     0.32600
H447        H  0.31339429  0.88248507  0.98930078     0.38500
H448        H  0.42600234  0.70424040  0.91089513     0.33000
H449        H  0.38799590  0.70128404  0.01431096     0.31800
H450        H  0.35716438  0.73377645  0.04703937     0.33500
H451        H  0.34134838  0.82976550  0.04662485     0.32500
H452        H  0.46391480  0.76982442  0.93345638     0.36500
H453        H  0.47147650  0.79597538  0.98349036     0.29200
H454        H  0.27385636  0.76007161  0.91314126     0.33500
H455        H  0.28372209  0.84135808  0.00478434     0.36300
H456        H  0.38813897  0.69889042  0.98199715     0.28900
H457        H  0.47372749  0.81906209  0.96116653     0.41800
H458        H  0.38483405  0.82158485  0.85685699     0.31800
H459        H  0.41675046  0.77869555  0.86542403     0.39500
H460        H  0.32399884  0.80364995  0.03830156     0.31300
H461        H  0.33541244  0.87879842  0.91525922     0.31400
H462        H  0.27272810  0.78527584  0.93369877     0.31600
Zr463      Zr  0.31669975  0.52143010  0.58022611     2.17500
O464        O  0.31591036  0.51526386  0.53011479    -0.50700
O465        O  0.35703248  0.49187843  0.58683260    -0.73900
O466        O  0.35268505  0.54800256  0.55744046    -0.80700
O467        O  0.25588037  0.47124998  0.58614172    -0.82500
O468        O  0.36331552  0.58567620  0.58372932    -0.78100
O469        O  0.29415712  0.48090429  0.56032836    -0.89700
O470        O  0.36559747  0.48862054  0.63299823    -0.75700
O471        O  0.34294926  0.53768404  0.61864969    -0.85200
O472        O  0.30204852  0.49456524  0.61880633    -0.84900
O473        O  0.30575541  0.56993616  0.58395257    -0.71600
O474        O  0.26790823  0.53006674  0.58456196    -0.83700
Zr475      Zr  0.26857445  0.56825899  0.66697667     2.26400
Zr476      Zr  0.33180653  0.58572349  0.62334107     2.06300
Zr477      Zr  0.25368571  0.50392728  0.62413386     2.10000
Zr478      Zr  0.32773998  0.51113397  0.65718368     1.78800
O479        O  0.20818593  0.49765132  0.60336547    -0.92500
O480        O  0.36872726  0.52409694  0.68353739    -0.40400
O481        O  0.27925654  0.51984369  0.66332158    -0.77000
O482        O  0.31732001  0.55920396  0.66274901    -0.95700
O483        O  0.28343547  0.59465075  0.62816072    -0.89000
O484        O  0.24235765  0.55193005  0.62853054    -0.91800
C485        C  0.37155083  0.48389272  0.60759422     1.01900
C486        C  0.27233542  0.46674832  0.56583137     1.14900
C487        C  0.36650679  0.57007893  0.56241671     1.05600
O488        O  0.37844703  0.58945041  0.64209606    -0.94000
O489        O  0.33150097  0.61642128  0.66365377    -0.89700
O490        O  0.29298706  0.60626711  0.68897628    -0.82900
C491        C  0.31537742  0.61982863  0.68456994     1.12300
O492        O  0.25211867  0.57383279  0.53981589    -0.96000
Zr493      Zr  0.25727882  0.57827873  0.58985750     1.88900
O494        O  0.23805281  0.60785840  0.66076826    -0.72600
O495        O  0.33118162  0.63275766  0.60519910    -0.51900
O496        O  0.26924355  0.62101786  0.56586385    -0.96500
O497        O  0.20885466  0.57043121  0.57761078    -0.53800
O498        O  0.23308974  0.61497152  0.61445205    -0.73100
C499        C  0.22890506  0.62145461  0.63984846     0.99200
O500        O  0.26798482  0.56467515  0.71739995    -0.61900
O501        O  0.25320048  0.45910488  0.64736641    -0.56700
O502        O  0.22695864  0.54651247  0.68544807    -0.93400
O503        O  0.21991550  0.50662083  0.66123610    -0.91800
O504        O  0.32029760  0.46232486  0.66736320    -0.92200
O505        O  0.32520570  0.50338343  0.70690392    -0.91000
C506        C  0.21387707  0.52390941  0.68045510     1.18100
H507        H  0.30556223  0.47511634  0.61573189     0.34000
H508        H  0.32692758  0.56528290  0.67919268     0.44900
H509        H  0.22275379  0.55452865  0.63145999     0.38400
H510        H  0.31136085  0.57971497  0.56744869     0.34900
H511        H  0.37977973  0.50688652  0.68492213     0.26700
H512        H  0.35091337  0.63823112  0.60426266     0.32600
H513        H  0.25155113  0.63120574  0.56400339     0.38500
H514        H  0.33857574  0.45547325  0.67362533     0.33000
H515        H  0.23552664  0.45045842  0.64161992     0.31800
H516        H  0.20257481  0.47866421  0.60868901     0.33500
H517        H  0.19792163  0.57743749  0.59345328     0.32500
H518        H  0.31499202  0.51962239  0.71410519     0.36500
H519        H  0.26464698  0.54483875  0.72137975     0.29200
H520        H  0.33469621  0.50878378  0.52507625     0.33500
H521        H  0.23824331  0.58789741  0.53433450     0.36300
H522        H  0.26762024  0.44800938  0.63795338     0.28900
H523        H  0.28741185  0.56752238  0.72328566     0.41800
H524        H  0.38895055  0.57430186  0.63315059     0.31800
H525        H  0.37944169  0.53611025  0.67085997     0.39500
H526        H  0.20650920  0.55008255  0.57830531     0.31300
H527        H  0.32543153  0.63074299  0.58563260     0.31400
H528        H  0.31446985  0.53414153  0.52223716     0.31600
Zr529      Zr  0.52004414  0.58234435  0.31802860     2.17500
O530        O  0.51540614  0.53225847  0.31367490    -0.50700
O531        O  0.48944914  0.58873217  0.35744302    -0.73900
O532        O  0.54507430  0.55914672  0.35488334    -0.80700
O533        O  0.46852954  0.59189386  0.25930759    -0.82500
O534        O  0.58388196  0.58401636  0.36509274    -0.78100
O535        O  0.47776912  0.56465532  0.29673130    -0.89700
O536        O  0.48659164  0.63491246  0.36631475    -0.75700
O537        O  0.53698510  0.62004184  0.34490027    -0.85200
O538        O  0.49448306  0.62195981  0.30392069    -0.84900
O539        O  0.56876868  0.58536099  0.30783936    -0.71600
O540        O  0.52936717  0.58722073  0.26946776    -0.83700
Zr541      Zr  0.56901050  0.66913323  0.27121693     2.26400
Zr542      Zr  0.58513888  0.62417668  0.33429067     2.06300
Zr543      Zr  0.50404318  0.62748234  0.25574008     2.10000
Zr544      Zr  0.51163890  0.65956307  0.33028043     1.78800
O545        O  0.49880780  0.60537536  0.21079842    -0.92500
O546        O  0.52610291  0.68179875  0.37317549    -0.40400
O547        O  0.52053681  0.66614110  0.28182619    -0.77000
O548        O  0.55978879  0.66441230  0.31994026    -0.95700
O549        O  0.59462646  0.62972308  0.28606962    -0.89000
O550        O  0.55222767  0.63103741  0.24483901    -0.91800
C551        C  0.48114806  0.60949680  0.37173309     1.01900
C552        C  0.46313889  0.57159584  0.27560841     1.14900
C553        C  0.56752476  0.56328688  0.36842044     1.05600
O554        O  0.58713553  0.64314445  0.38094067    -0.94000
O555        O  0.61765148  0.66300891  0.33362805    -0.89700
O556        O  0.60798427  0.68938869  0.29564842    -0.82900
C557        C  0.62167698  0.68403190  0.31776830     1.12300
O558        O  0.57451264  0.54169196  0.25435522    -0.96000
Zr559      Zr  0.57792790  0.59182065  0.25964909     1.88900
O560        O  0.60746485  0.66252059  0.23938987    -0.72600
O561        O  0.63166254  0.60479753  0.33587497    -0.51900
O562        O  0.62104592  0.56948406  0.27345069    -0.96500
O563        O  0.57056221  0.57808036  0.21164178    -0.53800
O564        O  0.61402458  0.61614504  0.23426113    -0.73100
C565        C  0.62056359  0.64149831  0.22981824     0.99200
O566        O  0.56787257  0.71970896  0.27209989    -0.61900
O567        O  0.46049631  0.65286533  0.25366076    -0.56700
O568        O  0.54734167  0.68875434  0.22988467    -0.93400
O569        O  0.50753895  0.66463489  0.22205008    -0.91800
O570        O  0.46367990  0.67308205  0.32251306    -0.92200
O571        O  0.50617212  0.70967461  0.32946282    -0.91000
C572        C  0.52491004  0.68391456  0.21640195     1.18100
H573        H  0.47492423  0.61956109  0.30734176     0.34000
H574        H  0.56631409  0.68057094  0.32974150     0.44900
H575        H  0.55497612  0.63400845  0.22525572     0.38400
H576        H  0.57811276  0.56859217  0.31342047     0.34900
H577        H  0.50872537  0.68848063  0.38173873     0.26700
H578        H  0.63663894  0.60474946  0.35576188     0.32600
H579        H  0.63127078  0.56642406  0.25595897     0.38500
H580        H  0.45675015  0.67860331  0.34098645     0.33000
H581        H  0.45098152  0.64557036  0.23704027     0.31800
H582        H  0.48036166  0.61137459  0.20416853     0.33500
H583        H  0.57644164  0.59414816  0.20035920     0.32500
H584        H  0.51932854  0.71606862  0.31511248     0.36500
H585        H  0.54868115  0.72489388  0.26709844     0.29200
H586        H  0.50916022  0.52567106  0.33205347     0.33500
H587        H  0.58963818  0.53636809  0.24159423     0.36300
H588        H  0.44946051  0.64581288  0.26941966     0.28900
H589        H  0.56921891  0.72475198  0.29191921     0.41800
H590        H  0.57322543  0.63249145  0.39157849     0.31800
H591        H  0.53212502  0.66637053  0.38525521     0.39500
H592        H  0.55019159  0.57746230  0.20950074     0.31300
H593        H  0.62930785  0.58500987  0.33108538     0.31400
H594        H  0.53457627  0.52525175  0.31177500     0.31600
Zr595      Zr  0.66659854  0.27070326  0.56911499     2.17500
O596        O  0.71696984  0.26696027  0.56783614    -0.50700
O597        O  0.65936458  0.23979892  0.60821299    -0.73900
O598        O  0.68848947  0.29588402  0.60673077    -0.80700
O599        O  0.66215403  0.22257301  0.50706953    -0.82500
O600        O  0.66219849  0.33363819  0.61713609    -0.78100
O601        O  0.68673597  0.23029694  0.54662187    -0.89700
O602        O  0.61295793  0.23581992  0.61527265    -0.75700
O603        O  0.62745089  0.28590356  0.59489227    -0.85200
O604        O  0.62823843  0.24444979  0.55271430    -0.84900
O605        O  0.66281280  0.31946592  0.55972288    -0.71600
O606        O  0.66310788  0.28092613  0.52055700    -0.83700
Zr607      Zr  0.58008586  0.31871152  0.52087650     2.26400
Zr608      Zr  0.62281755  0.33425436  0.58532526     2.06300
Zr609      Zr  0.62393695  0.25527806  0.50457837     2.10000
Zr610      Zr  0.58919151  0.25986624  0.57812219     1.78800
O611        O  0.64569822  0.25429119  0.45914862    -0.92500
O612        O  0.56289962  0.27170860  0.61947599    -0.40400
O613        O  0.58406612  0.27000701  0.52985148    -0.77000
O614        O  0.58356695  0.30829673  0.56941587    -0.95700
O615        O  0.61859706  0.34471671  0.53721298    -0.89000
O616        O  0.61921254  0.30358312  0.49506302    -0.91800
C617        C  0.63824595  0.23111900  0.62176144     1.01900
C618        C  0.68177228  0.21702445  0.52412377     1.14900
C619        C  0.68344769  0.31798270  0.62052189     1.05600
O620        O  0.60329508  0.33591179  0.63172923    -0.94000
O621        O  0.58316550  0.36574147  0.58440703    -0.89700
O622        O  0.55833027  0.35688237  0.54525138    -0.82900
C623        C  0.56271131  0.37002283  0.56789194     1.12300
O624        O  0.70795586  0.32688072  0.50757374    -0.96000
Zr625      Zr  0.65765614  0.32945128  0.51154531     1.88900
O626        O  0.58696594  0.35793018  0.49004391    -0.72600
O627        O  0.64071176  0.38134699  0.58698730    -0.51900
O628        O  0.67845960  0.37247982  0.52768666    -0.96500
O629        O  0.67403840  0.32377592  0.46406104    -0.53800
O630        O  0.63335128  0.36523891  0.48592102    -0.73100
C631        C  0.60800730  0.37146791  0.48112226     0.99200
O632        O  0.52956712  0.31585197  0.52017126    -0.61900
O633        O  0.60283724  0.20960209  0.50077884    -0.56700
O634        O  0.56164753  0.29741572  0.47898880    -0.93400
O635        O  0.58635051  0.25796694  0.47109936    -0.91800
O636        O  0.57855753  0.21142310  0.56896686    -0.92200
O637        O  0.53949624  0.25236981  0.57389799    -0.91000
C638        C  0.56687822  0.27516337  0.46541056     1.18100
H639        H  0.63120753  0.22488267  0.55563327     0.34000
H640        H  0.56700599  0.31420224  0.57892912     0.44900
H641        H  0.61640540  0.30681474  0.47553501     0.38400
H642        H  0.67918817  0.32908760  0.56594119     0.34900
H643        H  0.55665725  0.25371964  0.62708185     0.26700
H644        H  0.63957194  0.38662544  0.60675479     0.32600
H645        H  0.68003510  0.38422925  0.51096314     0.38500
H646        H  0.57140064  0.20418416  0.58675665     0.33000
H647        H  0.61060450  0.20170169  0.48354678     0.31800
H648        H  0.64273844  0.23517549  0.45238421     0.33500
H649        H  0.67755702  0.34283052  0.45735672     0.32500
H650        H  0.53212751  0.27025671  0.56710710     0.36500
H651        H  0.52530570  0.29613640  0.51650784     0.29200
H652        H  0.72251502  0.25995341  0.58629469     0.33500
H653        H  0.71363330  0.34345499  0.49691899     0.36300
H654        H  0.61128582  0.19849147  0.51579607     0.28900
H655        H  0.52366571  0.31848150  0.53961636     0.41800
H656        H  0.61000722  0.31881716  0.64084081     0.31800
H657        H  0.57695416  0.27829547  0.63285227     0.39500
H658        H  0.65785106  0.31746466  0.45322055     0.31300
H659        H  0.66078113  0.37950671  0.58328478     0.31400
H660        H  0.72388487  0.28625339  0.56714461     0.31600
Zr661      Zr  0.67939113  0.01913648  0.91636881     2.17500
O662        O  0.68077202  0.01252828  0.96641587    -0.50700
O663        O  0.64005465  0.98845145  0.90907531    -0.73900
O664        O  0.64257901  0.04421055  0.93975754    -0.80700
O665        O  0.74226292  0.97161777  0.91015943    -0.82500
O666        O  0.63043138  0.08152729  0.91355947    -0.78100
O667        O  0.70319825  0.97899869  0.93555441    -0.89700
O668        O  0.63212484  0.98524188  0.86279143    -0.75700
O669        O  0.65274998  0.03468902  0.87794825    -0.85200
O670        O  0.69545858  0.99357107  0.87742816    -0.84900
O671        O  0.68827747  0.06804496  0.91324091    -0.71600
O672        O  0.72779868  0.02999480  0.91244205    -0.83700
Zr673      Zr  0.72583819  0.06878941  0.82984711     2.26400
Zr674      Zr  0.66184598  0.08317232  0.87388783     2.06300
Zr675      Zr  0.74344022  0.00510383  0.87269775     2.10000
Zr676      Zr  0.66913681  0.00939604  0.83907925     1.78800
O677        O  0.78922189  0.00464094  0.89384104    -0.92500
O678        O  0.62708192  0.02149421  0.81399602    -0.40400
O679        O  0.71730617  0.01995585  0.83336973    -0.77000
O680        O  0.67742739  0.05792567  0.83399625    -0.95700
O681        O  0.70978807  0.09407280  0.86892806    -0.89000
O682        O  0.75242659  0.05351718  0.86841772    -0.91800
C683        C  0.62610194  0.98010465  0.88807802     1.01900
C684        C  0.72565289  0.96587962  0.93005717     1.14900
C685        C  0.62798914  0.06586426  0.93494674     1.05600
O686        O  0.61542012  0.08485017  0.85430168    -0.94000
O687        O  0.66162967  0.11528495  0.83482772    -0.89700
O688        O  0.70007515  0.10650724  0.80889105    -0.82900
C689        C  0.67748366  0.11951220  0.81388526     1.12300
O690        O  0.74284797  0.07373643  0.95727191    -0.96000
Zr691      Zr  0.73624324  0.07868328  0.90740734     1.88900
O692        O  0.75556079  0.10885092  0.83654731    -0.72600
O693        O  0.66022436  0.12971035  0.89320249    -0.51900
O694        O  0.71915789  0.11991824  0.93086802    -0.96500
O695        O  0.78469765  0.07499349  0.92146858    -0.53800
O696        O  0.75911197  0.11631180  0.88294564    -0.73100
C697        C  0.76370375  0.12282039  0.85761339     0.99200
O698        O  0.72620443  0.06713793  0.77926600    -0.61900
O699        O  0.74847115  0.96007105  0.85060773    -0.56700
O700        O  0.76795187  0.04819701  0.81082046    -0.93400
O701        O  0.77637573  0.00850383  0.83494470    -0.91800
O702        O  0.67728741  0.96095742  0.82769397    -0.92200
O703        O  0.67250449  0.00236964  0.78928523    -0.91000
C704        C  0.78172399  0.02593188  0.81563591     1.18100
H705        H  0.69283196  0.97392566  0.88014677     0.34000
H706        H  0.66756212  0.06392479  0.81766365     0.44900
H707        H  0.77186193  0.05698311  0.86530981     0.38400
H708        H  0.68224838  0.07736585  0.92984294     0.34900
H709        H  0.61829412  0.00351752  0.80953294     0.26700
H710        H  0.64044793  0.13502549  0.89230168     0.32600
H711        H  0.73529817  0.13250647  0.93185866     0.38500
H712        H  0.65873553  0.95343186  0.82328182     0.33000
H713        H  0.76540693  0.95204980  0.85892470     0.31800
H714        H  0.79794560  0.98740541  0.88700167     0.33500
H715        H  0.79062212  0.09427988  0.92509224     0.32500
H716        H  0.68471743  0.01747606  0.78274967     0.36500
H717        H  0.73064914  0.04771124  0.77447862     0.29200
H718        H  0.66216720  0.00565887  0.97161180     0.33500
H719        H  0.75318887  0.09038328  0.96328688     0.36300
H720        H  0.73316244  0.94869427  0.85810260     0.28900
H721        H  0.70661536  0.06911669  0.77355251     0.41800
H722        H  0.60537060  0.06941005  0.86328937     0.31800
H723        H  0.61481859  0.02979505  0.82814748     0.39500
H724        H  0.79513740  0.06953008  0.90473818     0.31300
H725        H  0.66402174  0.12726765  0.91319410     0.31400
H726        H  0.68194691  0.03137225  0.97439701     0.31600
Zr727      Zr  0.91824018  0.68078042  0.01970283     2.17500
O728        O  0.96857558  0.68175458  0.01599283    -0.50700
O729        O  0.91141048  0.64145614  0.98902642    -0.73900
O730        O  0.93905728  0.64229644  0.04438338    -0.80700
O731        O  0.91470592  0.74457942  0.97303970    -0.82500
O732        O  0.91157610  0.63060164  0.08093022    -0.78100
O733        O  0.93812370  0.70410794  0.97940204    -0.89700
O734        O  0.86502309  0.63468370  0.98466709    -0.75700
O735        O  0.87867050  0.65505752  0.03392612    -0.85200
O736        O  0.88044564  0.69834875  0.99338840    -0.84900
O737        O  0.91394817  0.68867982  0.06872189    -0.71600
O738        O  0.91544016  0.72898836  0.03143854    -0.83700
Zr739      Zr  0.83203909  0.72908124  0.06784490     2.26400
Zr740      Zr  0.87326957  0.66346144  0.08237807     2.06300
Zr741      Zr  0.87679147  0.74621203  0.00573918     2.10000
Zr742      Zr  0.84112770  0.67269876  0.00765929     1.78800
O743        O  0.89961930  0.79111646  0.00606759    -0.92500
O744        O  0.81379394  0.63176946  0.01865012    -0.40400
O745        O  0.83642693  0.72091082  0.01898873    -0.77000
O746        O  0.83478462  0.68070817  0.05613953    -0.95700
O747        O  0.86972090  0.71130364  0.09414377    -0.89000
O748        O  0.87186482  0.75464585  0.05416966    -0.91800
C749        C  0.89032426  0.62785712  0.98035011     1.01900
C750        C  0.93371098  0.72716228  0.96681384     1.14900
C751        C  0.93303815  0.62748064  0.06556617     1.05600
O752        O  0.85321389  0.61721318  0.08362507    -0.94000
O753        O  0.83282717  0.66378315  0.11270501    -0.89700
O754        O  0.80918498  0.70386889  0.10476171    -0.82900
C755        C  0.81267184  0.68060346  0.11705842     1.12300
O756        O  0.95998430  0.73909007  0.07951815    -0.96000
Zr757      Zr  0.90952867  0.73655636  0.08015193     1.88900
O758        O  0.83896560  0.75892715  0.10786334    -0.72600
O759        O  0.89070012  0.66106842  0.12962637    -0.51900
O760        O  0.92825980  0.71915468  0.12368665    -0.96500
O761        O  0.92695329  0.78372456  0.07536088    -0.53800
O762        O  0.88532521  0.76240446  0.11568585    -0.73100
C763        C  0.86000243  0.76752099  0.12164595     0.99200
O764        O  0.78164771  0.73153756  0.06396019    -0.61900
O765        O  0.85670682  0.75288085  0.95994005    -0.56700
O766        O  0.81472427  0.77200586  0.04763143    -0.93400
O767        O  0.83978945  0.78009779  0.00851629    -0.91800
O768        O  0.83220992  0.68094707  0.95871023    -0.92200
O769        O  0.79176663  0.67823637  0.99903762    -0.91000
C770        C  0.82029477  0.78580382  0.02559410     1.18100
H771        H  0.88356863  0.69598778  0.97378001     0.34000
H772        H  0.81794052  0.67136285  0.06150166     0.44900
H773        H  0.86958765  0.77416609  0.05786468     0.38400
H774        H  0.93005760  0.68186853  0.07840248     0.34900
H775        H  0.81175407  0.62187871  0.00081893     0.26700
H776        H  0.88747827  0.64164744  0.13535306     0.32600
H777        H  0.93264565  0.73589571  0.13466205     0.38500
H778        H  0.82706682  0.66258518  0.95119269     0.33000
H779        H  0.86606839  0.76953423  0.95249831     0.31800
H780        H  0.89342822  0.80021723  0.98877150     0.33500
H781        H  0.91105758  0.79591915  0.07964391     0.32500
H782        H  0.78399578  0.68396258  0.01711401     0.36500
H783        H  0.77795277  0.73487237  0.04406852     0.29200
H784        H  0.97396906  0.66316810  0.00923948     0.33500
H785        H  0.96525252  0.75030600  0.09584413     0.36300
H786        H  0.86393518  0.73741412  0.94861480     0.28900
H787        H  0.77492595  0.71240378  0.06693337     0.41800
H788        H  0.86121819  0.60756307  0.06742203     0.31800
H789        H  0.82638849  0.61994344  0.02967529     0.39500
H790        H  0.92998792  0.78611989  0.05523927     0.31300
H791        H  0.91105675  0.66262073  0.12785706     0.31400
H792        H  0.97539652  0.68256075  0.03531040     0.31600
C793        C  0.77662341  0.85330585  0.00017301     0.17600
C794        C  0.75184799  0.85036577  0.98531718    -0.11500
C795        C  0.73956287  0.87346272  0.97278559    -0.12300
C796        C  0.75201571  0.89958377  0.97505251     0.19200
C797        C  0.77656645  0.90254676  0.99021024    -0.14400
C798        C  0.78883471  0.87948836  0.00271360    -0.12600
C799        C  0.74064280  0.92307274  0.96058693     0.00200
C800        C  0.73288363  0.94277524  0.94732401    -0.32700
C801        C  0.79043797  0.82935349  0.01142317     0.01500
C802        C  0.80341757  0.80943679  0.01913948    -0.34300
H803        H  0.74232482  0.83019017  0.98301029     0.12600
H804        H  0.72068775  0.87087503  0.96094306     0.12400
H805        H  0.78649520  0.92258672  0.99192866     0.12300
H806        H  0.80809688  0.88198994  0.01393378     0.11300
C807        C  0.65765904  0.16571766  0.74685400     0.17600
C808        C  0.65961668  0.15008860  0.72248574    -0.11500
C809        C  0.65577248  0.16272075  0.69672206    -0.12300
C810        C  0.64996387  0.19107530  0.69516290     0.19200
C811        C  0.64767308  0.20667472  0.71953531    -0.14400
C812        C  0.65151706  0.19402180  0.74534048    -0.12600
C813        C  0.64647403  0.20417196  0.66859731     0.00200
C814        C  0.64317680  0.21575447  0.64671672    -0.32700
C815        C  0.66293273  0.15261602  0.77312925     0.01500
C816        C  0.66881229  0.13914483  0.79332730    -0.34300
H817        H  0.66439834  0.12818872  0.72339897     0.12600
H818        H  0.65752768  0.15044254  0.67804416     0.12400
H819        H  0.64312084  0.22861746  0.71857246     0.12300
H820        H  0.64998421  0.20631715  0.76402207     0.11300
C821        C  0.58539056  0.49556096  0.41470203     0.17600
C822        C  0.59373227  0.49446616  0.44245529    -0.11500
C823        C  0.59838944  0.46884121  0.45521163    -0.12300
C824        C  0.59468419  0.44421550  0.44028167     0.19200
C825        C  0.58639523  0.44534669  0.41252670    -0.14400
C826        C  0.58173462  0.47093521  0.39979105    -0.12600
C827        C  0.59910845  0.41783281  0.45351252     0.00200
C828        C  0.60288419  0.39614131  0.46533119    -0.32700
C829        C  0.58042610  0.52174691  0.40129351     0.01500
C830        C  0.57529213  0.54210844  0.38776318    -0.34300
H831        H  0.59658987  0.51335177  0.45419809     0.12600
H832        H  0.60478520  0.46822164  0.47670024     0.12400
H833        H  0.58345278  0.42647482  0.40077835     0.12300
H834        H  0.57524835  0.47152378  0.37832457     0.11300
C835        C  0.69317685  0.65469321  0.18853055     0.17600
C836        C  0.71054476  0.67625717  0.19725501    -0.11500
C837        C  0.73639828  0.68013287  0.18474970    -0.12300
C838        C  0.74509809  0.66239264  0.16352746     0.19200
C839        C  0.72777373  0.64079783  0.15483293    -0.14400
C840        C  0.70190942  0.63693752  0.16731921    -0.12600
C841        C  0.77106303  0.66723254  0.14965647     0.00200
C842        C  0.79138521  0.67249272  0.13612891    -0.32700
C843        C  0.66667334  0.65051008  0.20168467     0.01500
C844        C  0.64507003  0.64666557  0.21368917    -0.34300
H845        H  0.70408077  0.69009144  0.21366778     0.12600
H846        H  0.74949468  0.69705331  0.19147813     0.12400
H847        H  0.73416438  0.62709668  0.13827667     0.12300
H848        H  0.68872325  0.62016235  0.16041527     0.11300
C849        C  0.49734755  0.41999650  0.58564327     0.17600
C850        C  0.48498433  0.43517563  0.56419030    -0.11500
C851        C  0.45928010  0.44796141  0.56828834    -0.12300
C852        C  0.44573748  0.44558116  0.59384515     0.19200
C853        C  0.45829012  0.43073703  0.61540405    -0.14400
C854        C  0.48397699  0.41795351  0.61130632    -0.12600
C855        C  0.41898815  0.45825528  0.59798974     0.00200
C856        C  0.39691190  0.46930320  0.60201663    -0.32700
C857        C  0.52268144  0.40492859  0.58072728     0.01500
C858        C  0.54226013  0.39023772  0.57560632    -0.34300
H859        H  0.49498926  0.43674434  0.54418412     0.12600
H860        H  0.44984921  0.45943012  0.55146834     0.12400
H861        H  0.44808479  0.42879477  0.63527464     0.12300
H862        H  0.49318628  0.40611373  0.62799043     0.11300
C863        C  0.41437926  0.58736060  0.49566738     0.17600
C864        C  0.40594633  0.60906302  0.47835063    -0.11500
C865        C  0.41861420  0.61294325  0.45260764    -0.12300
C866        C  0.43974553  0.59507923  0.44394895     0.19200
C867        C  0.44813307  0.57327078  0.46119954    -0.14400
C868        C  0.43543813  0.56937797  0.48697514    -0.12600
C869        C  0.45318274  0.59952972  0.41767457     0.00200
C870        C  0.46523063  0.60384262  0.39621406    -0.32700
C871        C  0.40032901  0.58280895  0.52160030     0.01500
C872        C  0.38625918  0.57805644  0.54168773    -0.34300
H873        H  0.38948201  0.62290094  0.48469630     0.12600
H874        H  0.41195349  0.62987458  0.43948003     0.12400
H875        H  0.46446290  0.55932501  0.45473944     0.12300
H876        H  0.44193405  0.55232421  0.50002868     0.11300
C877        C  0.49949437  0.72689311  0.14841830     0.17600
C878        C  0.50130493  0.71359156  0.12270685    -0.11500
C879        C  0.48853933  0.72513180  0.09938396    -0.12300
C880        C  0.47385269  0.75006397  0.10158379     0.19200
C881        C  0.47235048  0.76358277  0.12721788    -0.14400
C882        C  0.48513500  0.75203024  0.15056817    -0.12600
C883        C  0.45928628  0.76093204  0.07783618     0.00200
C884        C  0.44614857  0.76835821  0.05787182    -0.32700
C885        C  0.51080853  0.71378395  0.17278305     0.01500
C886        C  0.51848853  0.70111352  0.19294167    -0.34300
H887        H  0.51213213  0.69404126  0.12079985     0.12600
H888        H  0.48971612  0.71437209  0.07974889     0.12400
H889        H  0.46092031  0.78276964  0.12925062     0.12300
H890        H  0.48338094  0.76240950  0.17036193     0.11300
C891        C  0.55296780  0.94014768  0.90157063     0.17600
C892        C  0.54266566  0.92046462  0.88291139    -0.11500
C893        C  0.51676469  0.90829704  0.88746347    -0.12300
C894        C  0.50101166  0.91583071  0.91062799     0.19200
C895        C  0.51126812  0.93559390  0.92919979    -0.14400
C896        C  0.53715339  0.94774884  0.92465461    -0.12600
C897        C  0.47518816  0.90203879  0.91623958     0.00200
C898        C  0.45512249  0.88834638  0.92198563    -0.32700
C899        C  0.57956250  0.95283869  0.89697069     0.01500
C900        C  0.60130703  0.96452879  0.89318538    -0.34300
H901        H  0.55467863  0.91445147  0.86496323     0.12600
H902        H  0.50915626  0.89283725  0.87310902     0.12400
H903        H  0.49940060  0.94138459  0.94731731     0.12300
H904        H  0.54488849  0.96297297  0.93918962     0.11300
C905        C  0.33391872  0.66639870  0.75210621     0.17600
C906        C  0.31171573  0.67461849  0.76888567    -0.11500
C907        C  0.31668853  0.68663478  0.79477517    -0.12300
C908        C  0.34389078  0.69047403  0.80410161     0.19200
C909        C  0.36611215  0.68231414  0.78731350    -0.14400
C910        C  0.36113514  0.67025444  0.76142135    -0.12600
C911        C  0.34891943  0.70320850  0.83064406     0.00200
C912        C  0.35294275  0.71483590  0.85240491    -0.32700
C913        C  0.32868149  0.65272143  0.72606409     0.01500
C914        C  0.32336692  0.63919449  0.70571716    -0.34300
H915        H  0.29057307  0.67154491  0.76205188     0.12600
H916        H  0.29933994  0.69289030  0.80752747     0.12400
H917        H  0.38724424  0.68521485  0.79425203     0.12300
H918        H  0.37847113  0.66377078  0.74877080     0.11300
C919        C  0.97766509  0.75374133  0.89987173     0.17600
C920        C  0.99029621  0.77980055  0.90171441    -0.11500
C921        C  0.00190066  0.79209790  0.87818041    -0.12300
C922        C  0.00093785  0.77844054  0.85260377     0.19200
C923        C  0.98883351  0.75210973  0.85086420    -0.14400
C924        C  0.97721080  0.73980100  0.87442347    -0.12600
C925        C  0.01082936  0.79217805  0.82796137     0.00200
C926        C  0.01761904  0.80484915  0.80748256    -0.32700
C927        C  0.96387602  0.74217787  0.92372982     0.01500
C928        C  0.95100784  0.73421215  0.94363746    -0.34300
H929        H  0.99066904  0.79085741  0.92121697     0.12600
H930        H  0.01108095  0.81249800  0.87980854     0.12400
H931        H  0.98785052  0.74137460  0.83120634     0.12300
H932        H  0.96739879  0.71970894  0.87267381     0.11300
C933        C  0.84951443  0.00174882  0.77162341     0.17600
C934        C  0.87581505  0.00743611  0.78248246    -0.11500
C935        C  0.89941621  0.99565375  0.77049234    -0.12300
C936        C  0.89691212  0.97807706  0.74754215     0.19200
C937        C  0.87063077  0.97269118  0.73642603    -0.14400
C938        C  0.84700470  0.98447815  0.74843442    -0.12600
C939        C  0.92108747  0.96428866  0.73658003     0.00200
C940        C  0.94125231  0.95143581  0.72917921    -0.32700
C941        C  0.82514391  0.01234571  0.78528278     0.01500
C942        C  0.80509485  0.01972195  0.79827494    -0.34300
H943        H  0.87803284  0.02056054  0.80052674     0.12600
H944        H  0.91955543  0.99982412  0.77944373     0.12400
H945        H  0.86836043  0.95897714  0.71883584     0.12300
H946        H  0.82678546  0.97972639  0.73996417     0.11300
C947        C  0.18894927  0.69474552  0.65358247     0.17600
C948        C  0.19107539  0.71563041  0.63350442    -0.11500
C949        C  0.17881285  0.74153422  0.63799372    -0.12300
C950        C  0.16437947  0.74672095  0.66261422     0.19200
C951        C  0.16226133  0.72581529  0.68266723    -0.14400
C952        C  0.17451396  0.69993927  0.67818347    -0.12600
C953        C  0.15081777  0.77299443  0.66707932     0.00200
C954        C  0.13736125  0.79347848  0.67210898    -0.32700
C955        C  0.20190522  0.66818920  0.64911024     0.01500
C956        C  0.21353413  0.64640027  0.64517045    -0.34300
H957        H  0.20220058  0.71188889  0.61440308     0.12600
H958        H  0.18047424  0.75742866  0.62225267     0.12400
H959        H  0.15102081  0.72948224  0.70171770     0.12300
H960        H  0.17273046  0.68400752  0.69387862     0.11300
C961        C  0.24713975  0.83767349  0.83067489     0.17600
C962        C  0.22468078  0.84810729  0.84577305    -0.11500
C963        C  0.19927837  0.85283118  0.83272363    -0.12300
C964        C  0.19615589  0.84715741  0.80447789     0.19200
C965        C  0.21862961  0.83679630  0.78930336    -0.14400
C966        C  0.24407875  0.83204793  0.80238262    -0.12600
C967        C  0.16996054  0.85217529  0.79112001     0.00200
C968        C  0.14818370  0.85667619  0.77974118    -0.32700
C969        C  0.27274544  0.83162060  0.84473719     0.01500
C970        C  0.29247501  0.82566669  0.85885741    -0.34300
H971        H  0.22674308  0.85235992  0.86769564     0.12600
H972        H  0.18206765  0.86082750  0.84466356     0.12400
H973        H  0.21645151  0.83232287  0.76743800     0.12300
H974        H  0.26123398  0.82380514  0.79053482     0.11300
C975        C  0.67057712  0.74961384  0.33692992     0.17600
C976        C  0.69268963  0.75796706  0.32010238    -0.11500
C977        C  0.70488700  0.78400267  0.32391171    -0.12300
C978        C  0.69500883  0.80188029  0.34452665     0.19200
C979        C  0.67314274  0.79336571  0.36159038    -0.14400
C980        C  0.66095679  0.76734064  0.35778793    -0.12600
C981        C  0.70749927  0.82876953  0.34838457     0.00200
C982        C  0.71871820  0.85080434  0.35221753    -0.32700
C983        C  0.65634663  0.72390516  0.33150033     0.01500
C984        C  0.64202976  0.70419286  0.32585974    -0.34300
H985        H  0.70019043  0.74456465  0.30377234     0.12600
H986        H  0.72184783  0.79027622  0.31065196     0.12400
H987        H  0.66537567  0.80691960  0.37766947     0.12300
H988        H  0.64374397  0.76123330  0.37080193     0.11300
C989        C  0.83904136  0.83586269  0.24479871     0.17600
C990        C  0.82397878  0.84401911  0.22137345    -0.11500
C991        C  0.82822793  0.83081388  0.19600155    -0.12300
C992        C  0.84758123  0.80935872  0.19387253     0.19200
C993        C  0.86268868  0.80114610  0.21729346    -0.14400
C994        C  0.85842822  0.81438265  0.24272895    -0.12600
C995        C  0.85160582  0.79558453  0.16775276     0.00200
C996        C  0.85497509  0.78344390  0.14620674    -0.32700
C997        C  0.83448769  0.84989688  0.27069139     0.01500
C998        C  0.82891870  0.86362567  0.29077527    -0.34300
H999        H  0.80894352  0.86060981  0.22273027     0.12600
H1000       H  0.81639696  0.83729276  0.17807431     0.12400
H1001       H  0.87767919  0.78452170  0.21589601     0.12300
H1002       H  0.87019917  0.80790666  0.26069467     0.11300
C1003       C  0.94487120  0.90502224  0.55118107     0.17600
C1004       C  0.93204828  0.88310354  0.53713172    -0.11500
C1005       C  0.91960544  0.88765245  0.51134485    -0.12300
C1006       C  0.92002089  0.91412305  0.49944083     0.19200
C1007       C  0.93330065  0.93589953  0.51325133    -0.14400
C1008       C  0.94573541  0.93135367  0.53901665    -0.12600
C1009       C  0.90514952  0.91948810  0.47414163     0.00200
C1010       C  0.89063512  0.92514173  0.45461303    -0.32700
C1011       C  0.95687431  0.90061065  0.57815833     0.01500
C1012       C  0.96749996  0.89690477  0.60047752    -0.34300
H1013       H  0.93133093  0.86263053  0.54627742     0.12600
H1014       H  0.90924039  0.87069280  0.50095690     0.12400
H1015       H  0.93358898  0.95649107  0.50434615     0.12300
H1016       H  0.95566667  0.94843921  0.54961752     0.11300
C1017       C  0.72566682  0.14927498  0.49952895     0.17600
C1018       C  0.71734414  0.12295407  0.50852133    -0.11500
C1019       C  0.72884560  0.09915860  0.49660711    -0.12300
C1020       C  0.74875107  0.10153110  0.47562322     0.19200
C1021       C  0.75745764  0.12785369  0.46702419    -0.14400
C1022       C  0.74595622  0.15164104  0.47893076    -0.12600
C1023       C  0.75904878  0.07710897  0.46181460     0.00200
C1024       C  0.76638608  0.05699180  0.44889368    -0.32700
C1025       C  0.71210802  0.17371648  0.51007691     0.01500
C1026       C  0.69918647  0.19383264  0.51739477    -0.34300
H1027       H  0.70155076  0.12082883  0.52429649     0.12600
H1028       H  0.72181049  0.07895247  0.50334650     0.12400
H1029       H  0.77270517  0.12998965  0.45072432     0.12300
H1030       H  0.75244426  0.17184641  0.47165976     0.11300
C1031       C  0.14680974  0.49873475  0.72480333     0.17600
C1032       C  0.12022135  0.50786259  0.71762550    -0.11500
C1033       C  0.09690817  0.49560919  0.72969359    -0.12300
C1034       C  0.10006956  0.47414466  0.74897798     0.19200
C1035       C  0.12668115  0.46542770  0.75658697    -0.14400
C1036       C  0.14999033  0.47767506  0.74451628    -0.12600
C1037       C  0.07610685  0.45977323  0.75944451     0.00200
C1038       C  0.05626845  0.44640629  0.76666505    -0.32700
C1039       C  0.17067691  0.50968456  0.71068540     0.01500
C1040       C  0.19052516  0.51721770  0.69754856    -0.34300
H1041       H  0.11750375  0.52399202  0.70226738     0.12600
H1042       H  0.07644588  0.50240504  0.72350578     0.12400
H1043       H  0.12938960  0.44873404  0.77133043     0.12300
H1044       H  0.17043553  0.47030998  0.75008388     0.11300
C1045       C  0.80214119  0.19709583  0.84469309     0.17600
C1046       C  0.81742381  0.20946092  0.86604727    -0.11500
C1047       C  0.83016896  0.23517070  0.86185370    -0.12300
C1048       C  0.82766467  0.24870265  0.83629213     0.19200
C1049       C  0.81205849  0.23651621  0.81507936    -0.14400
C1050       C  0.79930173  0.21082579  0.81927779    -0.12600
C1051       C  0.84267578  0.27401072  0.83111485     0.00200
C1052       C  0.85721336  0.29356973  0.82551598    -0.32700
C1053       C  0.78946530  0.17034478  0.84882294     0.01500
C1054       C  0.77836046  0.14824027  0.85253060    -0.34300
H1055       H  0.81972617  0.19910289  0.88581225     0.12600
H1056       H  0.84233712  0.24425846  0.87835626     0.12400
H1057       H  0.81013469  0.24665265  0.79515870     0.12300
H1058       H  0.78749269  0.20154270  0.80262476     0.11300
C1059       C  0.90332678  0.55415934  0.94068735     0.17600
C1060       C  0.89443489  0.55023535  0.91336176    -0.11500
C1061       C  0.89822991  0.52464211  0.90034437    -0.12300
C1062       C  0.91092821  0.50273873  0.91454683     0.19200
C1063       C  0.91973001  0.50657145  0.94193322    -0.14400
C1064       C  0.91591385  0.53220401  0.95497909    -0.12600
C1065       C  0.91605375  0.47693622  0.90040735     0.00200
C1066       C  0.92139884  0.45686545  0.88650871    -0.32700
C1067       C  0.89928278  0.58061420  0.95403157     0.01500
C1068       C  0.89539952  0.60254587  0.96543995    -0.34300
H1069       H  0.88465722  0.56698756  0.90208828     0.12600
H1070       H  0.89149214  0.52201310  0.87911314     0.12400
H1071       H  0.92973366  0.48986929  0.95308454     0.12300
H1072       H  0.92285808  0.53492952  0.97612814     0.11300
C1073       C  0.75039993  0.33680529  0.66755018     0.17600
C1074       C  0.76759458  0.31428530  0.67379525    -0.11500
C1075       C  0.79373169  0.31866804  0.68544858    -0.12300
C1076       C  0.80291168  0.34561730  0.69091362     0.19200
C1077       C  0.78567423  0.36819778  0.68483448    -0.14400
C1078       C  0.75948664  0.36380630  0.67312892    -0.12600
C1079       C  0.82977128  0.34993765  0.70322449     0.00200
C1080       C  0.85175984  0.35337886  0.71460742    -0.32700
C1081       C  0.72430421  0.33201539  0.65385163     0.01500
C1082       C  0.70420100  0.32634268  0.64012437    -0.34300
H1083       H  0.76091154  0.29333816  0.66936483     0.12600
H1084       H  0.80681232  0.30105089  0.69011273     0.12400
H1085       H  0.79250772  0.38914217  0.68903952     0.12300
H1086       H  0.74649263  0.38141029  0.66818219     0.11300
C1087       C  0.08161207  0.40938152  0.99670955     0.17600
C1088       C  0.05900510  0.42592917  0.98914976    -0.11500
C1089       C  0.04592343  0.42190957  0.96360662    -0.12300
C1090       C  0.05544112  0.40137871  0.94545764     0.19200
C1091       C  0.07788502  0.38467015  0.95312737    -0.14400
C1092       C  0.09096070  0.38868726  0.97866184    -0.12600
C1093       C  0.04217151  0.39740266  0.91903515     0.00200
C1094       C  0.03058019  0.39364328  0.89722813    -0.32700
C1095       C  0.09629818  0.41472971  0.02212070     0.01500
C1096       C  0.11044797  0.42044391  0.04189662    -0.34300
H1097       H  0.05173271  0.44213828  0.00282522     0.12600
H1098       H  0.02855632  0.43492417  0.95792748     0.12400
H1099       H  0.08539494  0.36870326  0.93929550     0.12300
H1100       H  0.10855848  0.37591203  0.98417295     0.11300
C1101       C  0.04864212  0.55092076  0.09097202     0.17600
C1102       C  0.04409347  0.56604088  0.06666123    -0.11500
C1103       C  0.01858113  0.57890707  0.06216399    -0.12300
C1104       C  0.99748480  0.57671098  0.08193835     0.19200
C1105       C  0.00189026  0.56134651  0.10613918    -0.14400
C1106       C  0.02743124  0.54842034  0.11062303    -0.12600
C1107       C  0.97205794  0.59161616  0.07783874     0.00200
C1108       C  0.95272938  0.60661607  0.07303317    -0.32700
C1109       C  0.07516834  0.53830006  0.09588622     0.01500
C1110       C  0.09723064  0.52750878  0.10030303    -0.34300
H1111       H  0.06033641  0.56811015  0.05134143     0.12600
H1112       H  0.01543319  0.59090037  0.04346133     0.12400
H1113       H  0.98577670  0.55967805  0.12164112     0.12300
H1114       H  0.03074364  0.53675461  0.12949724     0.11300
C1115       C  0.39377922  0.53015287  0.25080299     0.17600
C1116       C  0.39320762  0.52297814  0.22270631    -0.11500
C1117       C  0.36941918  0.51122506  0.21109602    -0.12300
C1118       C  0.34594307  0.50650496  0.22746024     0.19200
C1119       C  0.34649632  0.51349651  0.25563660    -0.14400
C1120       C  0.37036137  0.52528137  0.26728496    -0.12600
C1121       C  0.32119971  0.49536536  0.21487971     0.00200
C1122       C  0.30117167  0.48723243  0.20227373    -0.32700
C1123       C  0.41809841  0.54342018  0.26214082     0.01500
C1124       C  0.43872100  0.55558729  0.26947379    -0.34300
H1125       H  0.41107102  0.52675322  0.20968602     0.12600
H1126       H  0.36924077  0.50607289  0.18927146     0.12400
H1127       H  0.32844592  0.51009955  0.26849650     0.12300
H1128       H  0.37044574  0.53084960  0.28900115     0.11300
C1129       C  0.24455467  0.60411331  0.02622692     0.17600
C1130       C  0.23185187  0.63018954  0.02755295    -0.11500
C1131       C  0.24451203  0.65321075  0.01522140    -0.12300
C1132       C  0.26994221  0.65027162  0.00154229     0.19200
C1133       C  0.28243418  0.62414445  0.99994415    -0.14400
C1134       C  0.26980191  0.60117114  0.01225207    -0.12600
C1135       C  0.28410933  0.67418135  0.99060320     0.00200
C1136       C  0.29750213  0.69383844  0.98290368    -0.32700
C1137       C  0.23265576  0.58058252  0.04030949     0.01500
C1138       C  0.22508720  0.56043424  0.05306979    -0.34300
H1139       H  0.21244945  0.63280505  0.03847728     0.12600
H1140       H  0.23475056  0.67334225  0.01678599     0.12400
H1141       H  0.30218689  0.62162688  0.98963164     0.12300
H1142       H  0.27995399  0.58119443  0.01126931     0.11300
C1143       C  0.22263303  0.35363187  0.49638767     0.17600
C1144       C  0.21188073  0.38001705  0.49086396    -0.11500
C1145       C  0.22411941  0.40346173  0.50268251    -0.12300
C1146       C  0.24718828  0.40063978  0.52006253     0.19200
C1147       C  0.25840478  0.37433378  0.52496274    -0.14400
C1148       C  0.24616584  0.35088916  0.51314500    -0.12600
C1149       C  0.25804942  0.42440664  0.53442455     0.00200
C1150       C  0.26556571  0.44396650  0.54800250    -0.32700
C1151       C  0.20840069  0.32934424  0.48650694     0.01500
C1152       C  0.19530128  0.30916962  0.47975436    -0.34300
H1153       H  0.19362676  0.38239469  0.47804083     0.12600
H1154       H  0.21517158  0.42367603  0.49886165     0.12400
H1155       H  0.27613944  0.37188155  0.53848116     0.12300
H1156       H  0.25459580  0.33059797  0.51766288     0.11300
C1157       C  0.99819612  0.27155494  0.64794108     0.17600
C1158       C  0.98979691  0.28051805  0.62164380    -0.11500
C1159       C  0.00171495  0.26904886  0.59786110    -0.12300
C1160       C  0.02210368  0.24853164  0.60020778     0.19200
C1161       C  0.03029239  0.23934829  0.62650467    -0.14400
C1162       C  0.01835997  0.25081248  0.65029608    -0.12600
C1163       C  0.03563649  0.23806136  0.57573241     0.00200
C1164       C  0.04822510  0.23093505  0.55534941    -0.32700
C1165       C  0.98750989  0.28491579  0.67240570     0.01500
C1166       C  0.98019391  0.29769305  0.69259633    -0.34300
H1167       H  0.97443429  0.29672586  0.61953530     0.12600
H1168       H  0.99538466  0.27651325  0.57767548     0.12400
H1169       H  0.04621283  0.22369072  0.62862279     0.12300
H1170       H  0.02522842  0.24389292  0.67050022     0.11300
C1171       C  0.99724004  0.08169958  0.41060393     0.17600
C1172       C  0.98878721  0.06046335  0.42848409    -0.11500
C1173       C  0.96268737  0.04829383  0.42525013    -0.12300
C1174       C  0.94489741  0.05739294  0.40418754     0.19200
C1175       C  0.95350288  0.07838793  0.38612047    -0.14400
C1176       C  0.97958663  0.09052960  0.38933690    -0.12600
C1177       C  0.91800751  0.04495954  0.40078573     0.00200
C1178       C  0.89597960  0.03380475  0.39702771    -0.32700
C1179       C  0.02299235  0.09593246  0.41535610     0.01500
C1180       C  0.04278699  0.11016393  0.42071876    -0.34300
H1181       H  0.00216841  0.05363594  0.44514915     0.12600
H1182       H  0.95630743  0.03198200  0.43926748     0.12400
H1183       H  0.93997712  0.08550031  0.36969414     0.12300
H1184       H  0.98580242  0.10709090  0.37553880     0.11300
C1185       C  0.15301948  0.30323377  0.29977110     0.17600
C1186       C  0.17805943  0.29803072  0.28606667    -0.11500
C1187       C  0.18333402  0.31021377  0.26030554    -0.12300
C1188       C  0.16353154  0.32756003  0.24808857     0.19200
C1189       C  0.13835654  0.33245014  0.26162400    -0.14400
C1190       C  0.13308438  0.32027437  0.28736253    -0.12600
C1191       C  0.16972711  0.34200781  0.22276252     0.00200
C1192       C  0.17521965  0.35674706  0.20337778    -0.32700
C1193       C  0.14793458  0.29137823  0.32667111     0.01500
C1194       C  0.14370366  0.28096908  0.34898473    -0.34300
H1195       H  0.19361488  0.28486337  0.29544806     0.12600
H1196       H  0.20298277  0.30649249  0.25016246     0.12400
H1197       H  0.12301252  0.34604178  0.25249972     0.12300
H1198       H  0.11364377  0.32442759  0.29773251     0.11300
C1199       C  0.08581292  0.00027638  0.57623628     0.17600
C1200       C  0.06644819  0.01091287  0.55738256    -0.11500
C1201       C  0.07098713  0.03667684  0.54483902    -0.12300
C1202       C  0.09484399  0.05196062  0.55119378     0.19200
C1203       C  0.11444319  0.04103659  0.56957037    -0.14400
C1204       C  0.10992639  0.01530732  0.58206998    -0.12600
C1205       C  0.09910857  0.07898236  0.53924350     0.00200
C1206       C  0.10306099  0.10138202  0.52888186    -0.32700
C1207       C  0.08006275  0.97515286  0.59132396     0.01500
C1208       C  0.07470647  0.95593864  0.60639874    -0.34300
H1209       H  0.04762476  0.99959318  0.55283872     0.12600
H1210       H  0.05572206  0.04486518  0.53057832     0.12400
H1211       H  0.13299426  0.05260640  0.57457751     0.12300
H1212       H  0.12494873  0.00741246  0.59674400     0.11300
C1213       C  0.40137243  0.94691023  0.05484835     0.17600
C1214       C  0.38177216  0.95758306  0.07341085    -0.11500
C1215       C  0.38637538  0.98311556  0.08639856    -0.12300
C1216       C  0.41056301  0.99819756  0.08086727     0.19200
C1217       C  0.42991014  0.98774757  0.06194197    -0.14400
C1218       C  0.42530065  0.96224047  0.04894797    -0.12600
C1219       C  0.41634066  0.02340749  0.09589748     0.00200
C1220       C  0.42209033  0.04305103  0.11029419    -0.32700
C1221       C  0.39720800  0.92015288  0.04210216     0.01500
C1222       C  0.39384393  0.89803788  0.03085759    -0.34300
H1223       H  0.36314042  0.94602039  0.07811898     0.12600
H1224       H  0.37131870  0.99086189  0.10109342     0.12400
H1225       H  0.44876558  0.99908160  0.05758085     0.12300
H1226       H  0.44057513  0.95429650  0.03458961     0.11300
C1227       C  0.25020029  0.16726830  0.32904758     0.17600
C1228       C  0.26315145  0.14134901  0.33034468    -0.11500
C1229       C  0.28892897  0.13732748  0.31778217    -0.12300
C1230       C  0.30197890  0.15921763  0.30391043     0.19200
C1231       C  0.28888474  0.18507862  0.30231364    -0.14400
C1232       C  0.26308289  0.18910793  0.31490081    -0.12600
C1233       C  0.32872499  0.15500628  0.29132962     0.00200
C1234       C  0.35071174  0.15062693  0.28028399    -0.32700
C1235       C  0.22465780  0.17189222  0.34375341     0.01500
C1236       C  0.20482058  0.17656629  0.35818677    -0.34300
H1237       H  0.25351378  0.12437294  0.34139573     0.12600
H1238       H  0.29879401  0.11722631  0.31909547     0.12400
H1239       H  0.29871241  0.20214968  0.29158101     0.12300
H1240       H  0.25337831  0.20930946  0.31393711     0.11300
C1241       C  0.33357238  0.25477899  0.15967325     0.17600
C1242       C  0.34772598  0.27671709  0.14698564    -0.11500
C1243       C  0.33492065  0.30252237  0.14391266    -0.12300
C1244       C  0.30789315  0.30660318  0.15358610     0.19200
C1245       C  0.29349480  0.28450745  0.16574728    -0.14400
C1246       C  0.30632165  0.25867535  0.16884040    -0.12600
C1247       C  0.29497807  0.33341417  0.15102081     0.00200
C1248       C  0.28352986  0.35544516  0.14806700    -0.32700
C1249       C  0.34771378  0.22893885  0.16465078     0.01500
C1250       C  0.36161128  0.20886117  0.17004303    -0.34300
H1251       H  0.36882146  0.27399999  0.13987945     0.12600
H1252       H  0.34620133  0.31936255  0.13430386     0.12400
H1253       H  0.27251112  0.28734326  0.17312960     0.12300
H1254       H  0.29517710  0.24191916  0.17874718     0.11300
C1255       C  0.57934141  0.08440399  0.00117636     0.17600
C1256       C  0.55823584  0.06656101  0.01006165    -0.11500
C1257       C  0.54555622  0.07066608  0.03581940    -0.12300
C1258       C  0.55396275  0.09258767  0.05289480     0.19200
C1259       C  0.57470576  0.11071501  0.04376869    -0.14400
C1260       C  0.58736447  0.10662199  0.01802746    -0.12600
C1261       C  0.54141722  0.09649029  0.07975246     0.00200
C1262       C  0.53052799  0.10041353  0.10193177    -0.32700
C1263       C  0.59403733  0.07893174  0.97573728     0.01500
C1264       C  0.60831278  0.07352715  0.95593133    -0.34300
H1265       H  0.55191698  0.04923287  0.99730869     0.12600
H1266       H  0.52945460  0.05657671  0.04254863     0.12400
H1267       H  0.58131465  0.12781311  0.05668389     0.12300
H1268       H  0.60372952  0.12049404  0.01148097     0.11300
C1269       C  0.52333669  0.25213754  0.39679492     0.17600
C1270       C  0.53534637  0.25648760  0.37073681    -0.11500
C1271       C  0.52353205  0.24461519  0.34707834    -0.12300
C1272       C  0.49960292  0.22833822  0.34931190     0.19200
C1273       C  0.48726417  0.22447439  0.37528594    -0.14400
C1274       C  0.49908226  0.23634517  0.39894817    -0.12600
C1275       C  0.48873069  0.21427306  0.32529537     0.00200
C1276       C  0.48105519  0.20106432  0.30549767    -0.32700
C1277       C  0.53698738  0.26218292  0.42140911     0.01500
C1278       C  0.54987013  0.26894432  0.44175575    -0.34300
H1279       H  0.55419156  0.26849614  0.36879691     0.12600
H1280       H  0.53338561  0.24762520  0.32716098     0.12400
H1281       H  0.46887360  0.21179977  0.37732725     0.12300
H1282       H  0.48968693  0.23266781  0.41897267     0.11300
C1283       C  0.64686364  0.99935769  0.27492742     0.17600
C1284       C  0.62089098  0.98669149  0.27772143    -0.11500
C1285       C  0.59733400  0.99906367  0.26614384    -0.12300
C1286       C  0.59961569  0.02416307  0.25172038     0.19200
C1287       C  0.62562802  0.03666797  0.24872964    -0.14400
C1288       C  0.64915670  0.02429764  0.26026572    -0.12600
C1289       C  0.57522110  0.03773796  0.24103872     0.00200
C1290       C  0.55506791  0.05041485  0.23336004    -0.32700
C1291       C  0.67090240  0.98785263  0.28844898     0.01500
C1292       C  0.69114049  0.98034597  0.30108565    -0.34300
H1293       H  0.61878352  0.96753863  0.28920990     0.12600
H1294       H  0.57732175  0.98928869  0.26877968     0.12400
H1295       H  0.62766372  0.05616888  0.23782507     0.12300
H1296       H  0.66906112  0.03442263  0.25816308     0.11300
loop_ 
_geom_bond_atom_site_label_1 
_geom_bond_atom_site_label_2 
_geom_bond_distance 
_geom_bond_site_symmetry_2 
_ccdc_geom_bond_type 
Zr1           O2   2.440       .  S
Zr1           O3   2.435       .  S
Zr1           O4   2.426       .  S
Zr1           O7   2.440       .  S
Zr1           O9   2.382       .  S
Zr1          O10   2.380       .  S
Zr1          O11   2.407       .  S
Zr1          O12   2.403       .  S
O2           H58   0.990       .  S
O2           H66   0.991       .  S
O3           C23   1.283       .  A
O4           C25   1.281       .  A
O5          Zr15   2.429       .  S
O5           C24   1.283       .  A
O6          Zr14   2.450       .  S
O6           C25   1.286       .  A
O7           C24   1.285       .  A
O8          Zr16   2.427       .  S
O8           C23   1.281       .  A
O9          Zr14   2.392       .  S
O9          Zr16   2.375       .  S
O10         Zr15   2.392       .  S
O10         Zr16   2.373       .  S
O10          H45   0.966       .  S
O11         Zr14   2.404       .  S
O11         Zr31   2.392       .  S
O11          H48   0.965       .  S
O12         Zr15   2.392       .  S
O12         Zr31   2.402       .  S
Zr13         O38   2.442       .  S
Zr13         O32   2.437       .  S
Zr13         O40   2.444       .  S
Zr13         O28   2.428       .  S
Zr13         O19   2.403       .  S
Zr13         O20   2.409       .  S
Zr13         O21   2.379       .  S
Zr13         O22   2.383       .  S
Zr14         O33   2.436       .  S
Zr14         O26   2.436       .  S
Zr14         O27   2.450       .  S
Zr14         O20   2.402       .  S
Zr14         O21   2.387       .  S
Zr15         O17   2.436       .  S
Zr15         O39   2.437       .  S
Zr15         O41   2.429       .  S
Zr15         O19   2.390       .  S
Zr15         O22   2.394       .  S
Zr16         O42   2.435       .  S
Zr16         O43   2.436       .  S
Zr16         O18   2.437       .  S
Zr16         O19   2.400       .  S
Zr16         O20   2.390       .  S
O17          H54   0.990       .  S
O18          H49   0.990       .  S
O18          H63   0.990       .  S
O20          H46   0.966       .  S
O21         Zr31   2.371       .  S
O22         Zr31   2.374       .  S
O22          H47   0.965       .  S
C23        C1234   1.438       .  S
C24        C1276   1.439       .  S
C25        C1250   1.438       .  S
O26          H62   0.990       .  S
O27          C29   1.287       .  A
O28          C29   1.283       .  A
C29        C1220   1.440       .  S
O30         Zr31   2.439       .  S
O30          H59   0.990       .  S
Zr31         O34   2.436       .  S
Zr31         O35   2.441       .  S
Zr31         O36   2.433       .  S
O32          C37   1.284       .  A
O33          H50   0.990       .  S
O33          H65   0.990       .  S
O34          H51   0.990       .  S
O35          H55   0.990       .  S
O35          H64   0.990       .  S
O36          C37   1.282       .  A
C37        C1262   1.440       .  S
O38          H57   0.990       .  S
O38          H61   0.990       .  S
O39          H53   0.990       .  S
O39          H60   0.990       .  S
O40          C44   1.286       .  A
O41          C44   1.283       .  A
O42          H52   0.990       .  S
O43          H56   0.990       .  S
C44        C1290   1.439       .  S
Zr67         O68   2.439       .  S
Zr67         O69   2.434       .  S
Zr67         O70   2.426       .  S
Zr67         O73   2.440       .  S
Zr67         O75   2.381       .  S
Zr67         O76   2.379       .  S
Zr67         O77   2.408       .  S
Zr67         O78   2.404       .  S
O68         H124   0.990       .  S
O68         H132   0.990       .  S
O69          C89   1.283       .  A
O70          C91   1.281       .  A
O71         Zr81   2.427       .  S
O71          C90   1.282       .  A
O72         Zr80   2.445       .  S
O72          C91   1.285       .  A
O73          C90   1.285       .  A
O74         Zr82   2.429       .  S
O74          C89   1.282       .  A
O75         Zr80   2.391       .  S
O75         Zr82   2.375       .  S
O76         Zr81   2.395       .  S
O76         Zr82   2.371       .  S
O76         H111   0.966       .  S
O77         Zr80   2.405       .  S
O77         Zr97   2.392       .  S
O77         H114   0.965       .  S
O78         Zr81   2.392       .  S
O78         Zr97   2.402       .  S
Zr79        O104   2.444       .  S
Zr79         O98   2.435       .  S
Zr79        O106   2.435       .  S
Zr79         O94   2.420       .  S
Zr79         O85   2.397       .  S
Zr79         O86   2.405       .  S
Zr79         O87   2.378       .  S
Zr79         O88   2.382       .  S
Zr80         O99   2.435       .  S
Zr80         O92   2.435       .  S
Zr80         O93   2.448       .  S
Zr80         O86   2.401       .  S
Zr80         O87   2.386       .  S
Zr81         O83   2.435       .  S
Zr81        O105   2.435       .  S
Zr81        O107   2.433       .  S
Zr81         O85   2.387       .  S
Zr81         O88   2.390       .  S
Zr82        O108   2.436       .  S
Zr82        O109   2.436       .  S
Zr82         O84   2.437       .  S
Zr82         O85   2.398       .  S
Zr82         O86   2.392       .  S
O83         H120   0.990       .  S
O84         H115   0.990       .  S
O84         H129   0.990       .  S
O86         H112   0.966       .  S
O87         Zr97   2.373       .  S
O88         Zr97   2.376       .  S
O88         H113   0.965       .  S
C89        C1206   1.437       .  S
C90        C1164   1.438       .  S
C91        C1180   1.434       .  S
O92         H128   0.990       .  S
O93          C95   1.287       .  A
O94          C95   1.281       .  A
C95        C1236   1.436       .  S
O96         Zr97   2.440       .  S
O96         H125   0.991       .  S
Zr97        O100   2.438       .  S
Zr97        O101   2.441       .  S
Zr97        O102   2.428       .  S
O98         C103   1.283       .  A
O99         H116   0.990       .  S
O99         H131   0.990       .  S
O100        H117   0.990       .  S
O101        H121   0.990       .  S
O101        H130   0.990       .  S
O102        C103   1.281       .  A
C103       C1194   1.436       .  S
O104        H123   0.990       .  S
O104        H127   0.990       .  S
O105        H119   0.990       .  S
O105        H126   0.990       .  S
O106        C110   1.284       .  A
O107        C110   1.284       .  A
O108        H118   0.990       .  S
O109        H122   0.990       .  S
C110       C1152   1.437       .  S
Zr133       O134   2.439       .  S
Zr133       O135   2.434       .  S
Zr133       O136   2.425       .  S
Zr133       O139   2.441       .  S
Zr133       O141   2.381       .  S
Zr133       O142   2.380       .  S
Zr133       O143   2.406       .  S
Zr133       O144   2.402       .  S
O134        H190   0.990       .  S
O134        H198   0.990       .  S
O135        C155   1.283       .  A
O136        C157   1.282       .  A
O137       Zr147   2.428       .  S
O137        C156   1.283       .  A
O138       Zr146   2.442       .  S
O138        C157   1.285       .  A
O139        C156   1.286       .  A
O140       Zr148   2.430       .  S
O140        C155   1.282       .  A
O141       Zr146   2.389       .  S
O141       Zr148   2.374       .  S
O142       Zr147   2.392       .  S
O142       Zr148   2.370       .  S
O142        H177   0.966       .  S
O143       Zr146   2.402       .  S
O143       Zr163   2.390       .  S
O143        H180   0.965       .  S
O144       Zr147   2.392       .  S
O144       Zr163   2.400       .  S
Zr145       O170   2.442       .  S
Zr145       O164   2.430       .  S
Zr145       O172   2.443       .  S
Zr145       O160   2.426       .  S
Zr145       O151   2.401       .  S
Zr145       O152   2.406       .  S
Zr145       O153   2.379       .  S
Zr145       O154   2.380       .  S
Zr146       O165   2.436       .  S
Zr146       O158   2.434       .  S
Zr146       O159   2.442       .  S
Zr146       O152   2.400       .  S
Zr146       O153   2.385       .  S
Zr147       O149   2.434       .  S
Zr147       O171   2.437       .  S
Zr147       O173   2.432       .  S
Zr147       O151   2.389       .  S
Zr147       O154   2.389       .  S
Zr148       O174   2.437       .  S
Zr148       O175   2.436       .  S
Zr148       O150   2.436       .  S
Zr148       O151   2.400       .  S
Zr148       O152   2.395       .  S
O149        H186   0.990       .  S
O150        H181   0.990       .  S
O150        H195   0.990       .  S
O152        H178   0.966       .  S
O153       Zr163   2.371       .  S
O154       Zr163   2.375       .  S
O154        H179   0.966       .  S
C155       C1248   1.438       .  S
C156       C1122   1.439       .  S
C157       C1192   1.434       .  S
O158        H194   0.990       .  S
O159        C161   1.286       .  A
O160        C161   1.282       .  A
C161       C1096   1.436       .  S
O162       Zr163   2.439       .  S
O162        H191   0.990       .  S
Zr163       O166   2.437       .  S
Zr163       O167   2.440       .  S
Zr163       O168   2.427       .  S
O164        C169   1.283       .  A
O165        H182   0.990       .  S
O165        H197   0.990       .  S
O166        H183   0.990       .  S
O167        H187   0.990       .  S
O167        H196   0.990       .  S
O168        C169   1.281       .  A
C169       C1110   1.434       .  S
O170        H189   0.990       .  S
O170        H193   0.990       .  S
O171        H185   0.990       .  S
O171        H192   0.990       .  S
O172        C176   1.286       .  A
O173        C176   1.284       .  A
O174        H184   0.990       .  S
O175        H188   0.990       .  S
C176       C1138   1.439       .  S
Zr199       O200   2.441       .  S
Zr199       O201   2.434   1_655  S
Zr199       O202   2.429       .  S
Zr199       O205   2.438   1_655  S
Zr199       O207   2.379       .  S
Zr199       O208   2.381   1_655  S
Zr199       O209   2.409       .  S
Zr199       O210   2.402       .  S
O200        H256   0.990       .  S
O200        H264   0.990       .  S
O201        C221   1.283       .  A
O202        C223   1.282       .  A
O203       Zr213   2.429   1_455  S
O203        C222   1.283       .  A
O204       Zr212   2.446       .  S
O204        C223   1.286       .  A
O205        C222   1.284       .  A
O206       Zr214   2.425   1_455  S
O206        C221   1.281       .  A
O207       Zr212   2.391       .  S
O207       Zr214   2.375       .  S
O208       Zr213   2.393   1_455  S
O208       Zr214   2.372   1_455  S
O208        H243   0.966       .  S
O209       Zr212   2.404       .  S
O209       Zr229   2.391       .  S
O209        H246   0.965       .  S
O210       Zr213   2.391       .  S
O210       Zr229   2.399       .  S
Zr211       O236   2.446       .  S
Zr211       O230   2.436       .  S
Zr211       O238   2.441       .  S
Zr211       O226   2.429       .  S
Zr211       O217   2.404       .  S
Zr211       O218   2.406       .  S
Zr211       O219   2.379       .  S
Zr211       O220   2.382       .  S
Zr212       O231   2.435       .  S
Zr212       O224   2.436       .  S
Zr212       O225   2.446       .  S
Zr212       O218   2.401       .  S
Zr212       O219   2.387       .  S
Zr213       O215   2.433       .  S
Zr213       O237   2.437   1_655  S
Zr213       O239   2.430       .  S
Zr213       O217   2.389       .  S
Zr213       O220   2.391       .  S
Zr214       O240   2.435   1_655  S
Zr214       O241   2.435       .  S
Zr214       O216   2.436       .  S
Zr214       O217   2.398       .  S
Zr214       O218   2.387       .  S
O215        H252   0.990   1_655  S
O216        H247   0.990       .  S
O216        H261   0.990       .  S
O218        H244   0.966       .  S
O219       Zr229   2.375       .  S
O220       Zr229   2.374       .  S
O220        H245   0.966       .  S
C221       C1094   1.436       .  S
C222       C1038   1.437       .  S
C223       C1066   1.437       .  S
O224        H260   0.990       .  S
O225        C227   1.286       .  A
O226        C227   1.283       .  A
C227       C1052   1.438       .  S
O228       Zr229   2.439       .  S
O228        H257   0.990       .  S
Zr229       O232   2.437       .  S
Zr229       O233   2.439       .  S
Zr229       O234   2.428       .  S
O230        C235   1.284       .  A
O231        H248   0.990       .  S
O231        H263   0.990       .  S
O232        H249   0.990       .  S
O233        H253   0.990       .  S
O233        H262   0.990       .  S
O234        C235   1.281       .  A
C235       C1080   1.437       .  S
O236        H255   0.990       .  S
O236        H259   0.990       .  S
O237        H251   0.990       .  S
O237        H258   0.990       .  S
O238        C242   1.285       .  A
O239        C242   1.283       .  A
O240        H250   0.990       .  S
O241        H254   0.990       .  S
C242       C1166   1.438       .  S
Zr265       O266   2.440       .  S
Zr265       O267   2.439       .  S
Zr265       O268   2.427       .  S
Zr265       O271   2.439       .  S
Zr265       O273   2.382       .  S
Zr265       O274   2.380       .  S
Zr265       O275   2.410       .  S
Zr265       O276   2.405       .  S
O266        H322   0.990       .  S
O266        H330   0.990       .  S
O267        C287   1.284       .  A
O268        C289   1.282       .  A
O269       Zr279   2.429       .  S
O269        C288   1.283       .  A
O270       Zr278   2.444       .  S
O270        C289   1.285       .  A
O271        C288   1.285       .  A
O272       Zr280   2.428       .  S
O272        C287   1.281       .  A
O273       Zr278   2.392       .  S
O273       Zr280   2.377       .  S
O274       Zr279   2.394       .  S
O274       Zr280   2.372       .  S
O274        H309   0.966       .  S
O275       Zr278   2.403       .  S
O275       Zr295   2.391       .  S
O275        H312   0.965       .  S
O276       Zr279   2.391       .  S
O276       Zr295   2.404       .  S
Zr277       O302   2.443       .  S
Zr277       O296   2.431   1_565  S
Zr277       O304   2.443   1_565  S
Zr277       O292   2.425       .  S
Zr277       O283   2.401       .  S
Zr277       O284   2.409       .  S
Zr277       O285   2.379       .  S
Zr277       O286   2.382   1_565  S
Zr278       O297   2.436       .  S
Zr278       O290   2.434       .  S
Zr278       O291   2.443       .  S
Zr278       O284   2.402       .  S
Zr278       O285   2.386       .  S
Zr279       O281   2.434   1_565  S
Zr279       O303   2.437       .  S
Zr279       O305   2.430   1_565  S
Zr279       O283   2.390       .  S
Zr279       O286   2.392   1_565  S
Zr280       O306   2.435       .  S
Zr280       O307   2.436       .  S
Zr280       O282   2.438       .  S
Zr280       O283   2.401       .  S
Zr280       O284   2.393       .  S
O281        H318   0.990       .  S
O282        H313   0.990       .  S
O282        H327   0.990       .  S
O284        H310   0.966       .  S
O285       Zr295   2.371       .  S
O286       Zr295   2.374   1_545  S
O286        H311   0.965       .  S
C287        C982   1.440       .  S
C288       C1292   1.438       .  S
C289        C998   1.435       .  S
O290        H326   0.990       .  S
O291        C293   1.286       .  A
O292        C293   1.282       .  A
C293       C1010   1.435       .  S
O294       Zr295   2.439       .  S
O294        H323   0.990   1_565  S
Zr295       O298   2.438       .  S
Zr295       O299   2.441   1_565  S
Zr295       O300   2.432   1_565  S
O296        C301   1.282       .  A
O297        H314   0.990       .  S
O297        H329   0.990       .  S
O298        H315   0.990       .  S
O299        H319   0.990       .  S
O299        H328   0.990       .  S
O300        C301   1.282       .  A
C301       C1178   1.436       .  S
O302        H321   0.990       .  S
O302        H325   0.990       .  S
O303        H317   0.990   1_565  S
O303        H324   0.990       .  S
O304        C308   1.285       .  A
O305        C308   1.283       .  A
O306        H316   0.990       .  S
O307        H320   0.990       .  S
C308       C1024   1.439       .  S
Zr331       O332   2.439       .  S
Zr331       O333   2.429       .  S
Zr331       O334   2.432       .  S
Zr331       O337   2.443       .  S
Zr331       O339   2.381       .  S
Zr331       O340   2.380       .  S
Zr331       O341   2.407       .  S
Zr331       O342   2.403       .  S
O332        H388   0.990       .  S
O332        H396   0.990       .  S
O333        C353   1.281       .  A
O334        C355   1.282       .  A
O335       Zr345   2.427       .  S
O335        C354   1.283       .  A
O336       Zr344   2.450       .  S
O336        C355   1.286       .  A
O337        C354   1.286       .  A
O338       Zr346   2.428       .  S
O338        C353   1.281       .  A
O339       Zr344   2.391       .  S
O339       Zr346   2.376       .  S
O340       Zr345   2.394       .  S
O340       Zr346   2.369       .  S
O340        H375   0.966       .  S
O341       Zr344   2.404       .  S
O341       Zr361   2.388       .  S
O341        H378   0.965       .  S
O342       Zr345   2.394       .  S
O342       Zr361   2.399       .  S
Zr343       O368   2.444       .  S
Zr343       O362   2.434   1_455  S
Zr343       O370   2.448   1_455  S
Zr343       O358   2.429       .  S
Zr343       O349   2.402       .  S
Zr343       O350   2.408       .  S
Zr343       O351   2.380       .  S
Zr343       O352   2.382   1_455  S
Zr344       O363   2.438       .  S
Zr344       O356   2.436       .  S
Zr344       O357   2.447       .  S
Zr344       O350   2.404       .  S
Zr344       O351   2.387       .  S
Zr345       O347   2.434   1_455  S
Zr345       O369   2.439       .  S
Zr345       O371   2.433   1_455  S
Zr345       O349   2.390       .  S
Zr345       O352   2.391   1_455  S
Zr346       O372   2.435       .  S
Zr346       O373   2.434       .  S
Zr346       O348   2.435       .  S
Zr346       O349   2.401       .  S
Zr346       O350   2.392       .  S
O347        H384   0.990       .  S
O348        H379   0.990       .  S
O348        H393   0.990       .  S
O350        H376   0.966       .  S
O351       Zr361   2.373       .  S
O352       Zr361   2.375   1_655  S
O352        H377   0.966       .  S
C353        C968   1.436       .  S
C354        C926   1.439       .  S
C355        C954   1.439       .  S
O356        H392   0.990       .  S
O357        C359   1.287       .  A
O358        C359   1.283       .  A
C359       C1208   1.437       .  S
O360       Zr361   2.439       .  S
O360        H389   0.990   1_455  S
Zr361       O364   2.437       .  S
Zr361       O365   2.439   1_455  S
Zr361       O366   2.429   1_455  S
O362        C367   1.284       .  A
O363        H380   0.990       .  S
O363        H395   0.990       .  S
O364        H381   0.990       .  S
O365        H385   0.990       .  S
O365        H394   0.990       .  S
O366        C367   1.282       .  A
C367       C1012   1.437       .  S
O368        H387   0.990       .  S
O368        H391   0.990       .  S
O369        H383   0.990   1_455  S
O369        H390   0.990       .  S
O370        C374   1.286       .  A
O371        C374   1.284       .  A
O372        H382   0.990       .  S
O373        H386   0.990       .  S
C374        C940   1.441       .  S
Zr397       O398   2.441       .  S
Zr397       O399   2.437       .  S
Zr397       O400   2.427       .  S
Zr397       O403   2.441       .  S
Zr397       O405   2.381       .  S
Zr397       O406   2.381       .  S
Zr397       O407   2.408       .  S
Zr397       O408   2.401       .  S
O398        H454   0.990       .  S
O398        H462   0.990       .  S
O399        C419   1.284       .  A
O400        C421   1.282       .  A
O401       Zr411   2.426       .  S
O401        C420   1.282       .  A
O402       Zr410   2.445       .  S
O402        C421   1.285       .  A
O403        C420   1.285       .  A
O404       Zr412   2.428       .  S
O404        C419   1.281       .  A
O405       Zr410   2.391       .  S
O405       Zr412   2.376       .  S
O406       Zr411   2.393       .  S
O406       Zr412   2.372       .  S
O406        H441   0.966       .  S
O407       Zr410   2.401       .  S
O407       Zr427   2.388       .  S
O407        H444   0.965       .  S
O408       Zr411   2.390       .  S
O408       Zr427   2.400       .  S
Zr409       O434   2.445       .  S
Zr409       O428   2.440   1_556  S
Zr409       O436   2.446   1_556  S
Zr409       O424   2.428       .  S
Zr409       O415   2.403       .  S
Zr409       O416   2.409       .  S
Zr409       O417   2.380       .  S
Zr409       O418   2.381   1_556  S
Zr410       O429   2.436       .  S
Zr410       O422   2.435       .  S
Zr410       O423   2.439       .  S
Zr410       O416   2.401       .  S
Zr410       O417   2.387       .  S
Zr411       O413   2.433   1_556  S
Zr411       O435   2.438       .  S
Zr411       O437   2.428   1_556  S
Zr411       O415   2.389       .  S
Zr411       O418   2.393   1_556  S
Zr412       O438   2.436       .  S
Zr412       O439   2.436       .  S
Zr412       O414   2.437       .  S
Zr412       O415   2.400       .  S
Zr412       O416   2.392       .  S
O413        H450   0.990       .  S
O414        H445   0.990       .  S
O414        H459   0.990       .  S
O416        H442   0.966       .  S
O417       Zr427   2.373       .  S
O418       Zr427   2.376   1_554  S
O418        H443   0.966       .  S
C419        C912   1.438       .  S
C420       C1136   1.438       .  S
C421        C970   1.435       .  S
O422        H458   0.990       .  S
O423        C425   1.285       .  A
O424        C425   1.282       .  A
C425        C898   1.434       .  S
O426       Zr427   2.440       .  S
O426        H455   0.990   1_556  S
Zr427       O430   2.438       .  S
Zr427       O431   2.438   1_556  S
Zr427       O432   2.429   1_556  S
O428        C433   1.285       .  A
O429        H446   0.990       .  S
O429        H461   0.990       .  S
O430        H447   0.990       .  S
O431        H451   0.990       .  S
O431        H460   0.990       .  S
O432        C433   1.282       .  A
C433       C1222   1.441       .  S
O434        H453   0.990       .  S
O434        H457   0.990       .  S
O435        H449   0.990   1_556  S
O435        H456   0.990       .  S
O436        C440   1.286       .  A
O437        C440   1.283       .  A
O438        H448   0.990       .  S
O439        H452   0.990       .  S
C440        C884   1.439       .  S
Zr463       O464   2.440       .  S
Zr463       O465   2.436       .  S
Zr463       O466   2.425       .  S
Zr463       O469   2.438       .  S
Zr463       O471   2.381       .  S
Zr463       O472   2.378       .  S
Zr463       O473   2.409       .  S
Zr463       O474   2.403       .  S
O464        H520   0.990       .  S
O464        H528   0.990       .  S
O465        C485   1.283       .  A
O466        C487   1.281       .  A
O467       Zr477   2.424       .  S
O467        C486   1.282       .  A
O468       Zr476   2.446       .  S
O468        C487   1.286       .  A
O469        C486   1.284       .  A
O470       Zr478   2.428       .  S
O470        C485   1.281       .  A
O471       Zr476   2.393       .  S
O471       Zr478   2.377       .  S
O472       Zr477   2.394       .  S
O472       Zr478   2.370       .  S
O472        H507   0.966       .  S
O473       Zr476   2.405       .  S
O473       Zr493   2.393       .  S
O473        H510   0.965       .  S
O474       Zr477   2.391       .  S
O474       Zr493   2.399       .  S
Zr475       O500   2.442       .  S
Zr475       O494   2.433       .  S
Zr475       O502   2.437       .  S
Zr475       O490   2.427       .  S
Zr475       O481   2.401       .  S
Zr475       O482   2.404       .  S
Zr475       O483   2.378       .  S
Zr475       O484   2.382       .  S
Zr476       O495   2.435       .  S
Zr476       O488   2.435       .  S
Zr476       O489   2.449       .  S
Zr476       O482   2.399       .  S
Zr476       O483   2.388       .  S
Zr477       O479   2.435       .  S
Zr477       O501   2.438       .  S
Zr477       O503   2.428       .  S
Zr477       O481   2.388       .  S
Zr477       O484   2.392       .  S
Zr478       O504   2.435       .  S
Zr478       O505   2.434       .  S
Zr478       O480   2.435       .  S
Zr478       O481   2.398       .  S
Zr478       O482   2.391       .  S
O479        H516   0.990       .  S
O480        H511   0.990       .  S
O480        H525   0.990       .  S
O482        H508   0.966       .  S
O483       Zr493   2.376       .  S
O484       Zr493   2.372       .  S
O484        H509   0.966       .  S
C485        C856   1.439       .  S
C486       C1150   1.436       .  S
C487        C872   1.436       .  S
O488        H524   0.990       .  S
O489        C491   1.287       .  A
O490        C491   1.282       .  A
C491        C914   1.438       .  S
O492       Zr493   2.440       .  S
O492        H521   0.990       .  S
Zr493       O496   2.437       .  S
Zr493       O497   2.442       .  S
Zr493       O498   2.434       .  S
O494        C499   1.283       .  A
O495        H512   0.990       .  S
O495        H527   0.990       .  S
O496        H513   0.990       .  S
O497        H517   0.990       .  S
O497        H526   0.990       .  S
O498        C499   1.283       .  A
C499        C956   1.439       .  S
O500        H519   0.990       .  S
O500        H523   0.990       .  S
O501        H515   0.990       .  S
O501        H522   0.990       .  S
O502        C506   1.284       .  A
O503        C506   1.283       .  A
O504        H514   0.990       .  S
O505        H518   0.990       .  S
C506       C1040   1.435       .  S
Zr529       O530   2.439       .  S
Zr529       O531   2.431       .  S
Zr529       O532   2.426       .  S
Zr529       O535   2.441       .  S
Zr529       O537   2.382       .  S
Zr529       O538   2.377       .  S
Zr529       O539   2.409       .  S
Zr529       O540   2.401       .  S
O530        H586   0.990       .  S
O530        H594   0.990       .  S
O531        C551   1.282       .  A
O532        C553   1.282       .  A
O533       Zr543   2.435       .  S
O533        C552   1.284       .  A
O534       Zr542   2.445       .  S
O534        C553   1.286       .  A
O535        C552   1.285       .  A
O536       Zr544   2.431       .  S
O536        C551   1.282       .  A
O537       Zr542   2.390       .  S
O537       Zr544   2.375       .  S
O538       Zr543   2.388       .  S
O538       Zr544   2.368       .  S
O538        H573   0.966       .  S
O539       Zr542   2.403       .  S
O539       Zr559   2.390       .  S
O539        H576   0.965       .  S
O540       Zr543   2.391       .  S
O540       Zr559   2.404       .  S
Zr541       O566   2.444       .  S
Zr541       O560   2.433       .  S
Zr541       O568   2.445       .  S
Zr541       O556   2.428       .  S
Zr541       O547   2.402       .  S
Zr541       O548   2.407       .  S
Zr541       O549   2.381       .  S
Zr541       O550   2.381       .  S
Zr542       O561   2.436       .  S
Zr542       O554   2.435       .  S
Zr542       O555   2.447       .  S
Zr542       O548   2.399       .  S
Zr542       O549   2.389       .  S
Zr543       O545   2.433       .  S
Zr543       O567   2.437       .  S
Zr543       O569   2.428       .  S
Zr543       O547   2.390       .  S
Zr543       O550   2.393       .  S
Zr544       O570   2.436       .  S
Zr544       O571   2.435       .  S
Zr544       O546   2.437       .  S
Zr544       O547   2.401       .  S
Zr544       O548   2.391       .  S
O545        H582   0.990       .  S
O546        H577   0.990       .  S
O546        H591   0.990       .  S
O548        H574   0.966       .  S
O549       Zr559   2.374       .  S
O550       Zr559   2.375       .  S
O550        H575   0.966       .  S
C551        C870   1.437       .  S
C552       C1124   1.441       .  S
C553        C830   1.435       .  S
O554        H590   0.990       .  S
O555        C557   1.287       .  A
O556        C557   1.283       .  A
C557        C984   1.438       .  S
O558       Zr559   2.441       .  S
O558        H587   0.990       .  S
Zr559       O562   2.438       .  S
Zr559       O563   2.439       .  S
Zr559       O564   2.434       .  S
O560        C565   1.283       .  A
O561        H578   0.990       .  S
O561        H593   0.990       .  S
O562        H579   0.990       .  S
O563        H583   0.990       .  S
O563        H592   0.990       .  S
O564        C565   1.283       .  A
C565        C844   1.439       .  S
O566        H585   0.990       .  S
O566        H589   0.990       .  S
O567        H581   0.990       .  S
O567        H588   0.990       .  S
O568        C572   1.286       .  A
O569        C572   1.283       .  A
O570        H580   0.990       .  S
O571        H584   0.990       .  S
C572        C886   1.439       .  S
Zr595       O596   2.441       .  S
Zr595       O597   2.432       .  S
Zr595       O598   2.429       .  S
Zr595       O601   2.437       .  S
Zr595       O603   2.381       .  S
Zr595       O604   2.381       .  S
Zr595       O605   2.405       .  S
Zr595       O606   2.403       .  S
O596        H652   0.990       .  S
O596        H660   0.990       .  S
O597        C617   1.283       .  A
O598        C619   1.282       .  A
O599       Zr609   2.433       .  S
O599        C618   1.284       .  A
O600       Zr608   2.445       .  S
O600        C619   1.285       .  A
O601        C618   1.285       .  A
O602       Zr610   2.426       .  S
O602        C617   1.281       .  A
O603       Zr608   2.391       .  S
O603       Zr610   2.378       .  S
O604       Zr609   2.392       .  S
O604       Zr610   2.371       .  S
O604        H639   0.966       .  S
O605       Zr608   2.403       .  S
O605       Zr625   2.390       .  S
O605        H642   0.965       .  S
O606       Zr609   2.390       .  S
O606       Zr625   2.398       .  S
Zr607       O632   2.444       .  S
Zr607       O626   2.432       .  S
Zr607       O634   2.439       .  S
Zr607       O622   2.428       .  S
Zr607       O613   2.400       .  S
Zr607       O614   2.404       .  S
Zr607       O615   2.379       .  S
Zr607       O616   2.380       .  S
Zr608       O627   2.435       .  S
Zr608       O620   2.434       .  S
Zr608       O621   2.446       .  S
Zr608       O614   2.399       .  S
Zr608       O615   2.387       .  S
Zr609       O611   2.435       .  S
Zr609       O633   2.437       .  S
Zr609       O635   2.434       .  S
Zr609       O613   2.390       .  S
Zr609       O616   2.389       .  S
Zr610       O636   2.436       .  S
Zr610       O637   2.436       .  S
Zr610       O612   2.436       .  S
Zr610       O613   2.395       .  S
Zr610       O614   2.392       .  S
O611        H648   0.990       .  S
O612        H643   0.990       .  S
O612        H657   0.990       .  S
O614        H640   0.966       .  S
O615       Zr625   2.376       .  S
O616       Zr625   2.376       .  S
O616        H641   0.966       .  S
C617        C814   1.435       .  S
C618       C1026   1.438       .  S
C619       C1082   1.437       .  S
O620        H656   0.990       .  S
O621        C623   1.286       .  A
O622        C623   1.282       .  A
C623        C858   1.438       .  S
O624       Zr625   2.441       .  S
O624        H653   0.990       .  S
Zr625       O628   2.437       .  S
Zr625       O629   2.443       .  S
Zr625       O630   2.428       .  S
O626        C631   1.283       .  A
O627        H644   0.990       .  S
O627        H659   0.990       .  S
O628        H645   0.990       .  S
O629        H649   0.990       .  S
O629        H658   0.989       .  S
O630        C631   1.282       .  A
C631        C828   1.436       .  S
O632        H651   0.990       .  S
O632        H655   0.990       .  S
O633        H647   0.990       .  S
O633        H654   0.990       .  S
O634        C638   1.285       .  A
O635        C638   1.284       .  A
O636        H646   0.990       .  S
O637        H650   0.990       .  S
C638       C1278   1.439       .  S
Zr661       O662   2.440       .  S
Zr661       O663   2.435   1_545  S
Zr661       O664   2.431       .  S
Zr661       O667   2.437   1_545  S
Zr661       O669   2.379       .  S
Zr661       O670   2.381   1_545  S
Zr661       O671   2.406       .  S
Zr661       O672   2.404       .  S
O662        H718   0.990       .  S
O662        H726   0.990       .  S
O663        C683   1.283       .  A
O664        C685   1.282       .  A
O665       Zr675   2.427   1_565  S
O665        C684   1.283       .  A
O666       Zr674   2.446       .  S
O666        C685   1.286       .  A
O667        C684   1.284       .  A
O668       Zr676   2.423   1_565  S
O668        C683   1.280       .  A
O669       Zr674   2.391       .  S
O669       Zr676   2.377       .  S
O670       Zr675   2.395   1_565  S
O670       Zr676   2.373   1_565  S
O670        H705   0.966       .  S
O671       Zr674   2.403       .  S
O671       Zr691   2.390       .  S
O671        H708   0.965       .  S
O672       Zr675   2.389       .  S
O672       Zr691   2.399       .  S
Zr673       O698   2.445       .  S
Zr673       O692   2.431       .  S
Zr673       O700   2.445       .  S
Zr673       O688   2.427       .  S
Zr673       O679   2.400       .  S
Zr673       O680   2.405       .  S
Zr673       O681   2.379       .  S
Zr673       O682   2.380       .  S
Zr674       O693   2.436       .  S
Zr674       O686   2.435       .  S
Zr674       O687   2.442       .  S
Zr674       O680   2.403       .  S
Zr674       O681   2.387       .  S
Zr675       O677   2.436       .  S
Zr675       O699   2.436   1_545  S
Zr675       O701   2.426       .  S
Zr675       O679   2.390       .  S
Zr675       O682   2.387       .  S
Zr676       O702   2.436   1_545  S
Zr676       O703   2.435       .  S
Zr676       O678   2.436       .  S
Zr676       O679   2.398       .  S
Zr676       O680   2.391       .  S
O677        H714   0.990   1_545  S
O678        H709   0.990       .  S
O678        H723   0.990       .  S
O680        H706   0.966       .  S
O681       Zr691   2.374       .  S
O682       Zr691   2.375       .  S
O682        H707   0.965       .  S
C683        C900   1.436       .  S
C684        C800   1.436       .  S
C685       C1264   1.439       .  S
O686        H722   0.990       .  S
O687        C689   1.285       .  A
O688        C689   1.282       .  A
C689        C816   1.435       .  S
O690       Zr691   2.442       .  S
O690        H719   0.990       .  S
Zr691       O694   2.437       .  S
Zr691       O695   2.443       .  S
Zr691       O696   2.433       .  S
O692        C697   1.283       .  A
O693        H710   0.990       .  S
O693        H725   0.990       .  S
O694        H711   0.990       .  S
O695        H715   0.990       .  S
O695        H724   0.989       .  S
O696        C697   1.283       .  A
C697       C1054   1.438       .  S
O698        H717   0.990       .  S
O698        H721   0.990       .  S
O699        H713   0.990       .  S
O699        H720   0.990       .  S
O700        C704   1.286       .  A
O701        C704   1.282       .  A
O702        H712   0.990       .  S
O703        H716   0.990       .  S
C704        C942   1.438       .  S
Zr727       O728   2.439       .  S
Zr727       O729   2.432   1_554  S
Zr727       O730   2.426       .  S
Zr727       O733   2.446   1_554  S
Zr727       O735   2.381       .  S
Zr727       O736   2.380   1_554  S
Zr727       O737   2.408       .  S
Zr727       O738   2.401       .  S
O728        H784   0.990       .  S
O728        H792   0.990       .  S
O729        C749   1.282       .  A
O730        C751   1.282       .  A
O731       Zr741   2.421   1_556  S
O731        C750   1.281       .  A
O732       Zr740   2.439       .  S
O732        C751   1.284       .  A
O733        C750   1.286       .  A
O734       Zr742   2.438   1_556  S
O734        C749   1.283       .  A
O735       Zr740   2.390       .  S
O735       Zr742   2.371       .  S
O736       Zr741   2.395   1_556  S
O736       Zr742   2.370   1_556  S
O736        H771   0.966       .  S
O737       Zr740   2.404       .  S
O737       Zr757   2.387       .  S
O737        H774   0.965       .  S
O738       Zr741   2.391       .  S
O738       Zr757   2.399       .  S
Zr739       O764   2.444       .  S
Zr739       O758   2.435       .  S
Zr739       O766   2.439       .  S
Zr739       O754   2.425       .  S
Zr739       O745   2.403       .  S
Zr739       O746   2.408       .  S
Zr739       O747   2.379       .  S
Zr739       O748   2.380       .  S
Zr740       O759   2.435       .  S
Zr740       O752   2.436       .  S
Zr740       O753   2.443       .  S
Zr740       O746   2.399       .  S
Zr740       O747   2.386       .  S
Zr741       O743   2.433       .  S
Zr741       O765   2.437   1_554  S
Zr741       O767   2.427       .  S
Zr741       O745   2.389       .  S
Zr741       O748   2.387       .  S
Zr742       O768   2.436   1_554  S
Zr742       O769   2.435   1_554  S
Zr742       O744   2.436       .  S
Zr742       O745   2.403       .  S
Zr742       O746   2.394       .  S
O743        H780   0.990   1_554  S
O744        H775   0.990       .  S
O744        H789   0.990       .  S
O746        H772   0.966       .  S
O747       Zr757   2.375       .  S
O748       Zr757   2.376       .  S
O748        H773   0.966       .  S
C749       C1068   1.440       .  S
C750        C928   1.438       .  S
C751       C1108   1.432       .  S
O752        H788   0.990       .  S
O753        C755   1.286       .  A
O754        C755   1.282       .  A
C755        C842   1.435       .  S
O756       Zr757   2.441       .  S
O756        H785   0.990       .  S
Zr757       O760   2.438       .  S
Zr757       O761   2.440       .  S
Zr757       O762   2.424       .  S
O758        C763   1.284       .  A
O759        H776   0.990       .  S
O759        H791   0.990       .  S
O760        H777   0.990       .  S
O761        H781   0.990       .  S
O761        H790   0.990       .  S
O762        C763   1.281       .  A
C763        C996   1.435       .  S
O764        H783   0.990       .  S
O764        H787   0.990       .  S
O765        H779   0.990       .  S
O765        H786   0.990       .  S
O766        C770   1.284       .  A
O767        C770   1.282       .  A
O768        H778   0.990       .  S
O769        H782   0.990   1_556  S
C770        C802   1.437       .  S
C793        C801   1.442       .  S
C793        C794   1.402   1_554  A
C793        C798   1.401       .  A
C794        C795   1.401       .  A
C794        H803   1.083       .  S
C795        C796   1.402       .  A
C795        H804   1.083       .  S
C796        C799   1.441       .  S
C796        C797   1.401       .  A
C797        C798   1.398   1_556  A
C797        H805   1.083       .  S
C798        H806   1.083       .  S
C799        C800   1.207       .  T
C801        C802   1.207       .  T
C807        C815   1.441       .  S
C807        C808   1.402       .  A
C807        C812   1.401       .  A
C808        C809   1.398       .  A
C808        H817   1.084       .  S
C809        C810   1.400       .  A
C809        H818   1.083       .  S
C810        C813   1.440       .  S
C810        C811   1.403       .  A
C811        C812   1.400       .  A
C811        H819   1.083       .  S
C812        H820   1.083       .  S
C813        C814   1.206       .  T
C815        C816   1.206       .  T
C821        C829   1.441       .  S
C821        C822   1.401       .  A
C821        C826   1.402       .  A
C822        C823   1.400       .  A
C822        H831   1.083       .  S
C823        C824   1.403       .  A
C823        H832   1.083       .  S
C824        C827   1.441       .  S
C824        C825   1.400       .  A
C825        C826   1.398       .  A
C825        H833   1.083       .  S
C826        H834   1.084       .  S
C827        C828   1.207       .  T
C829        C830   1.206       .  T
C835        C843   1.444       .  S
C835        C836   1.402       .  A
C835        C840   1.402       .  A
C836        C837   1.400       .  A
C836        H845   1.083       .  S
C837        C838   1.401       .  A
C837        H846   1.083       .  S
C838        C841   1.441       .  S
C838        C839   1.402       .  A
C839        C840   1.400       .  A
C839        H847   1.084       .  S
C840        H848   1.083       .  S
C841        C842   1.207       .  T
C843        C844   1.208       .  T
C849        C857   1.444       .  S
C849        C850   1.402       .  A
C849        C854   1.402       .  A
C850        C851   1.401       .  A
C850        H859   1.083       .  S
C851        C852   1.402       .  A
C851        H860   1.083       .  S
C852        C855   1.444       .  S
C852        C853   1.402       .  A
C853        C854   1.400       .  A
C853        H861   1.083       .  S
C854        H862   1.083       .  S
C855        C856   1.208       .  T
C857        C858   1.208       .  T
C863        C871   1.442       .  S
C863        C864   1.401       .  A
C863        C868   1.402       .  A
C864        C865   1.399       .  A
C864        H873   1.083       .  S
C865        C866   1.401       .  A
C865        H874   1.083       .  S
C866        C869   1.442       .  S
C866        C867   1.402       .  A
C867        C868   1.401       .  A
C867        H875   1.083       .  S
C868        H876   1.083       .  S
C869        C870   1.207       .  T
C871        C872   1.207       .  T
C877        C885   1.443       .  S
C877        C878   1.402       .  A
C877        C882   1.402       .  A
C878        C879   1.400       .  A
C878        H887   1.083       .  S
C879        C880   1.402       .  A
C879        H888   1.083       .  S
C880        C883   1.444       .  S
C880        C881   1.402       .  A
C881        C882   1.401       .  A
C881        H889   1.083       .  S
C882        H890   1.083       .  S
C883        C884   1.209       .  T
C885        C886   1.208       .  T
C891        C899   1.441       .  S
C891        C892   1.402       .  A
C891        C896   1.401       .  A
C892        C893   1.400       .  A
C892        H901   1.083       .  S
C893        C894   1.402       .  A
C893        H902   1.084       .  S
C894        C897   1.440       .  S
C894        C895   1.401       .  A
C895        C896   1.399       .  A
C895        H903   1.083       .  S
C896        H904   1.083       .  S
C897        C898   1.206       .  T
C899        C900   1.206       .  T
C905        C913   1.444       .  S
C905        C906   1.402       .  A
C905        C910   1.402       .  A
C906        C907   1.400       .  A
C906        H915   1.083       .  S
C907        C908   1.401       .  A
C907        H916   1.083       .  S
C908        C911   1.443       .  S
C908        C909   1.402       .  A
C909        C910   1.401       .  A
C909        H917   1.083       .  S
C910        H918   1.083       .  S
C911        C912   1.208       .  T
C913        C914   1.208       .  T
C919        C927   1.444       .  S
C919        C920   1.402       .  A
C919        C924   1.402       .  A
C920        C921   1.400   1_655  A
C920        H929   1.083       .  S
C921        C922   1.402       .  A
C921        H930   1.083       .  S
C922        C925   1.444       .  S
C922        C923   1.402   1_455  A
C923        C924   1.401       .  A
C923        H931   1.083       .  S
C924        H932   1.083       .  S
C925        C926   1.209       .  T
C927        C928   1.208       .  T
C933        C941   1.444       .  S
C933        C934   1.402       .  A
C933        C938   1.402   1_545  A
C934        C935   1.400   1_545  A
C934        H943   1.083       .  S
C935        C936   1.402       .  A
C935        H944   1.083       .  S
C936        C939   1.445       .  S
C936        C937   1.403       .  A
C937        C938   1.402       .  A
C937        H945   1.083       .  S
C938        H946   1.083       .  S
C939        C940   1.209       .  T
C941        C942   1.208       .  T
C947        C955   1.444       .  S
C947        C948   1.403       .  A
C947        C952   1.401       .  A
C948        C949   1.401       .  A
C948        H957   1.083       .  S
C949        C950   1.402       .  A
C949        H958   1.083       .  S
C950        C953   1.445       .  S
C950        C951   1.403       .  A
C951        C952   1.400       .  A
C951        H959   1.084       .  S
C952        H960   1.083       .  S
C953        C954   1.209       .  T
C955        C956   1.208       .  T
C961        C969   1.441       .  S
C961        C962   1.402       .  A
C961        C966   1.402       .  A
C962        C963   1.398       .  A
C962        H971   1.084       .  S
C963        C964   1.400       .  A
C963        H972   1.083       .  S
C964        C967   1.441       .  S
C964        C965   1.403       .  A
C965        C966   1.401       .  A
C965        H973   1.083       .  S
C966        H974   1.083       .  S
C967        C968   1.206       .  T
C969        C970   1.206       .  T
C975        C983   1.443       .  S
C975        C976   1.402       .  A
C975        C980   1.402       .  A
C976        C977   1.401       .  A
C976        H985   1.083       .  S
C977        C978   1.402       .  A
C977        H986   1.083       .  S
C978        C981   1.444       .  S
C978        C979   1.402       .  A
C979        C980   1.400       .  A
C979        H987   1.083       .  S
C980        H988   1.083       .  S
C981        C982   1.209       .  T
C983        C984   1.208       .  T
C989        C997   1.440       .  S
C989        C990   1.401       .  A
C989        C994   1.401       .  A
C990        C991   1.397       .  A
C990        H999   1.084       .  S
C991        C992   1.400       .  A
C991       H1000   1.083       .  S
C992        C995   1.440       .  S
C992        C993   1.403       .  A
C993        C994   1.401       .  A
C993       H1001   1.083       .  S
C994       H1002   1.083       .  S
C995        C996   1.206       .  T
C997        C998   1.206       .  T
C1003      C1011   1.442       .  S
C1003      C1004   1.402       .  A
C1003      C1008   1.401       .  A
C1004      C1005   1.400       .  A
C1004      H1013   1.083       .  S
C1005      C1006   1.402       .  A
C1005      H1014   1.083       .  S
C1006      C1009   1.441       .  S
C1006      C1007   1.401       .  A
C1007      C1008   1.399       .  A
C1007      H1015   1.084       .  S
C1008      H1016   1.083       .  S
C1009      C1010   1.206       .  T
C1011      C1012   1.207       .  T
C1017      C1025   1.443       .  S
C1017      C1018   1.402       .  A
C1017      C1022   1.402       .  A
C1018      C1019   1.401       .  A
C1018      H1027   1.083       .  S
C1019      C1020   1.402       .  A
C1019      H1028   1.083       .  S
C1020      C1023   1.444       .  S
C1020      C1021   1.402       .  A
C1021      C1022   1.400       .  A
C1021      H1029   1.083       .  S
C1022      H1030   1.083       .  S
C1023      C1024   1.209       .  T
C1025      C1026   1.208       .  T
C1031      C1039   1.440       .  S
C1031      C1032   1.401       .  A
C1031      C1036   1.401       .  A
C1032      C1033   1.400       .  A
C1032      H1041   1.083       .  S
C1033      C1034   1.402       .  A
C1033      H1042   1.083       .  S
C1034      C1037   1.441       .  S
C1034      C1035   1.402       .  A
C1035      C1036   1.399       .  A
C1035      H1043   1.083       .  S
C1036      H1044   1.083       .  S
C1037      C1038   1.207       .  T
C1039      C1040   1.206       .  T
C1045      C1053   1.444       .  S
C1045      C1046   1.402       .  A
C1045      C1050   1.402       .  A
C1046      C1047   1.401       .  A
C1046      H1055   1.083       .  S
C1047      C1048   1.402       .  A
C1047      H1056   1.083       .  S
C1048      C1051   1.443       .  S
C1048      C1049   1.402       .  A
C1049      C1050   1.400       .  A
C1049      H1057   1.083       .  S
C1050      H1058   1.083       .  S
C1051      C1052   1.208       .  T
C1053      C1054   1.208       .  T
C1059      C1067   1.445       .  S
C1059      C1060   1.401       .  A
C1059      C1064   1.403       .  A
C1060      C1061   1.399       .  A
C1060      H1069   1.083       .  S
C1061      C1062   1.402       .  A
C1061      H1070   1.084       .  S
C1062      C1065   1.443       .  S
C1062      C1063   1.402       .  A
C1063      C1064   1.402       .  A
C1063      H1071   1.083       .  S
C1064      H1072   1.083       .  S
C1065      C1066   1.208       .  T
C1067      C1068   1.209       .  T
C1073      C1081   1.442       .  S
C1073      C1074   1.401       .  A
C1073      C1078   1.402       .  A
C1074      C1075   1.398       .  A
C1074      H1083   1.083       .  S
C1075      C1076   1.400       .  A
C1075      H1084   1.083       .  S
C1076      C1079   1.442       .  S
C1076      C1077   1.403       .  A
C1077      C1078   1.402       .  A
C1077      H1085   1.083       .  S
C1078      H1086   1.083       .  S
C1079      C1080   1.207       .  T
C1081      C1082   1.207       .  T
C1087      C1095   1.441   1_556  S
C1087      C1088   1.401       .  A
C1087      C1092   1.402       .  A
C1088      C1089   1.400       .  A
C1088      H1097   1.083   1_556  S
C1089      C1090   1.402       .  A
C1089      H1098   1.083       .  S
C1090      C1093   1.441       .  S
C1090      C1091   1.401       .  A
C1091      C1092   1.399       .  A
C1091      H1099   1.083       .  S
C1092      H1100   1.083       .  S
C1093      C1094   1.207       .  T
C1095      C1096   1.207       .  T
C1101      C1109   1.439       .  S
C1101      C1102   1.400       .  A
C1101      C1106   1.402       .  A
C1102      C1103   1.397       .  A
C1102      H1111   1.083       .  S
C1103      C1104   1.401   1_455  A
C1103      H1112   1.084       .  S
C1104      C1107   1.437       .  S
C1104      C1105   1.401   1_655  A
C1105      C1106   1.399       .  A
C1105      H1113   1.083   1_455  S
C1106      H1114   1.083       .  S
C1107      C1108   1.204       .  T
C1109      C1110   1.205       .  T
C1115      C1123   1.446       .  S
C1115      C1116   1.401       .  A
C1115      C1120   1.403       .  A
C1116      C1117   1.399       .  A
C1116      H1125   1.083       .  S
C1117      C1118   1.401       .  A
C1117      H1126   1.084       .  S
C1118      C1121   1.445       .  S
C1118      C1119   1.403       .  A
C1119      C1120   1.403       .  A
C1119      H1127   1.083       .  S
C1120      H1128   1.083       .  S
C1121      C1122   1.209       .  T
C1123      C1124   1.210       .  T
C1129      C1137   1.444       .  S
C1129      C1130   1.403       .  A
C1129      C1134   1.402       .  A
C1130      C1131   1.402       .  A
C1130      H1139   1.083       .  S
C1131      C1132   1.402       .  A
C1131      H1140   1.083       .  S
C1132      C1135   1.443   1_554  S
C1132      C1133   1.401   1_554  A
C1133      C1134   1.399   1_556  A
C1133      H1141   1.084       .  S
C1134      H1142   1.083       .  S
C1135      C1136   1.208       .  T
C1137      C1138   1.208       .  T
C1143      C1151   1.441       .  S
C1143      C1144   1.402       .  A
C1143      C1148   1.401       .  A
C1144      C1145   1.399       .  A
C1144      H1153   1.083       .  S
C1145      C1146   1.402       .  A
C1145      H1154   1.083       .  S
C1146      C1149   1.441       .  S
C1146      C1147   1.401       .  A
C1147      C1148   1.399       .  A
C1147      H1155   1.083       .  S
C1148      H1156   1.083       .  S
C1149      C1150   1.206       .  T
C1151      C1152   1.207       .  T
C1157      C1165   1.443       .  S
C1157      C1158   1.402       .  A
C1157      C1162   1.402   1_655  A
C1158      C1159   1.400   1_655  A
C1158      H1167   1.083       .  S
C1159      C1160   1.402       .  A
C1159      H1168   1.083   1_455  S
C1160      C1163   1.443       .  S
C1160      C1161   1.402       .  A
C1161      C1162   1.401       .  A
C1161      H1169   1.083       .  S
C1162      H1170   1.083       .  S
C1163      C1164   1.208       .  T
C1165      C1166   1.208       .  T
C1171      C1179   1.440   1_655  S
C1171      C1172   1.402       .  A
C1171      C1176   1.401       .  A
C1172      C1173   1.400       .  A
C1172      H1181   1.083   1_655  S
C1173      C1174   1.402       .  A
C1173      H1182   1.083       .  S
C1174      C1177   1.440       .  S
C1174      C1175   1.401       .  A
C1175      C1176   1.398       .  A
C1175      H1183   1.083       .  S
C1176      H1184   1.083       .  S
C1177      C1178   1.206       .  T
C1179      C1180   1.206       .  T
C1185      C1193   1.441       .  S
C1185      C1186   1.402       .  A
C1185      C1190   1.401       .  A
C1186      C1187   1.400       .  A
C1186      H1195   1.083       .  S
C1187      C1188   1.402       .  A
C1187      H1196   1.083       .  S
C1188      C1191   1.440       .  S
C1188      C1189   1.401       .  A
C1189      C1190   1.399       .  A
C1189      H1197   1.084       .  S
C1190      H1198   1.083       .  S
C1191      C1192   1.206       .  T
C1193      C1194   1.207       .  T
C1199      C1207   1.442   1_545  S
C1199      C1200   1.403       .  A
C1199      C1204   1.401       .  A
C1200      C1201   1.401       .  A
C1200      H1209   1.083   1_545  S
C1201      C1202   1.403       .  A
C1201      H1210   1.084       .  S
C1202      C1205   1.442       .  S
C1202      C1203   1.401       .  A
C1203      C1204   1.399       .  A
C1203      H1211   1.083       .  S
C1204      H1212   1.083       .  S
C1205      C1206   1.207       .  T
C1207      C1208   1.207       .  T
C1213      C1221   1.446       .  S
C1213      C1214   1.403       .  A
C1213      C1218   1.402       .  A
C1214      C1215   1.402       .  A
C1214      H1223   1.083       .  S
C1215      C1216   1.403       .  A
C1215      H1224   1.083       .  S
C1216      C1219   1.445   1_565  S
C1216      C1217   1.402       .  A
C1217      C1218   1.401       .  A
C1217      H1225   1.083       .  S
C1218      H1226   1.083       .  S
C1219      C1220   1.209       .  T
C1221      C1222   1.210       .  T
C1227      C1235   1.442       .  S
C1227      C1228   1.401       .  A
C1227      C1232   1.402       .  A
C1228      C1229   1.399       .  A
C1228      H1237   1.083       .  S
C1229      C1230   1.401       .  A
C1229      H1238   1.083       .  S
C1230      C1233   1.443       .  S
C1230      C1231   1.402       .  A
C1231      C1232   1.401       .  A
C1231      H1239   1.083       .  S
C1232      H1240   1.084       .  S
C1233      C1234   1.208       .  T
C1235      C1236   1.207       .  T
C1241      C1249   1.443       .  S
C1241      C1242   1.402       .  A
C1241      C1246   1.402       .  A
C1242      C1243   1.399       .  A
C1242      H1251   1.083       .  S
C1243      C1244   1.401       .  A
C1243      H1252   1.083       .  S
C1244      C1247   1.443       .  S
C1244      C1245   1.403       .  A
C1245      C1246   1.401       .  A
C1245      H1253   1.083       .  S
C1246      H1254   1.083       .  S
C1247      C1248   1.208       .  T
C1249      C1250   1.208       .  T
C1255      C1263   1.444   1_554  S
C1255      C1256   1.402       .  A
C1255      C1260   1.402       .  A
C1256      C1257   1.401       .  A
C1256      H1265   1.083   1_554  S
C1257      C1258   1.403       .  A
C1257      H1266   1.083       .  S
C1258      C1261   1.445       .  S
C1258      C1259   1.402       .  A
C1259      C1260   1.400       .  A
C1259      H1267   1.083       .  S
C1260      H1268   1.083       .  S
C1261      C1262   1.209       .  T
C1263      C1264   1.208       .  T
C1269      C1277   1.444       .  S
C1269      C1270   1.402       .  A
C1269      C1274   1.402       .  A
C1270      C1271   1.400       .  A
C1270      H1279   1.083       .  S
C1271      C1272   1.402       .  A
C1271      H1280   1.083       .  S
C1272      C1275   1.444       .  S
C1272      C1273   1.402       .  A
C1273      C1274   1.401       .  A
C1273      H1281   1.083       .  S
C1274      H1282   1.083       .  S
C1275      C1276   1.208       .  T
C1277      C1278   1.208       .  T
C1283      C1291   1.443       .  S
C1283      C1284   1.402       .  A
C1283      C1288   1.401   1_565  A
C1284      C1285   1.401       .  A
C1284      H1293   1.083       .  S
C1285      C1286   1.402   1_565  A
C1285      H1294   1.083       .  S
C1286      C1289   1.444       .  S
C1286      C1287   1.402       .  A
C1287      C1288   1.399       .  A
C1287      H1295   1.083       .  S
C1288      H1296   1.084       .  S
C1289      C1290   1.208       .  T
C1291      C1292   1.208       .  T
