geometry optimzed in LAMMPS
_audit_creation_date              2020-11-30 
_audit_creation_method            'lammps2cif' 
_symmetry_space_group_name_H-M    'P1' 
_symmetry_Int_Tables_number       1 
_symmetry_cell_setting            triclinic 
loop_ 
_symmetry_equiv_pos_as_xyz 
  x,y,z 
_cell_length_a                    33.72561557 
_cell_length_b                    33.72433464781364 
_cell_length_c                    35.404619703761334 
_cell_angle_alpha                 89.9974987653718 
_cell_angle_beta                  89.99205971166056 
_cell_angle_gamma                 90.01131663672206 
loop_ 
_atom_site_label 
_atom_site_type_symbol 
_atom_site_fract_x 
_atom_site_fract_y 
_atom_site_fract_z 
_atom_site_charge 
C1          C  0.92414065  0.00326267  0.78587352     0.84600
N2          N  0.90398775  0.96819352  0.78675940    -0.73700
C3          C  0.86366645  0.96819606  0.78840725     0.87000
N4          N  0.84375251  0.00296295  0.78934160    -0.73700
C5          C  0.86342795  0.03787591  0.78854526     0.87100
N6          N  0.90374591  0.03817787  0.78689565    -0.75400
O7          O  0.30992819  0.13633982  0.80690069    -0.53500
C8          C  0.18635668  0.12816491  0.79693476     0.79200
O9          O  0.23389765  0.23653634  0.84722189    -0.54600
C10         C  0.33618835  0.16320787  0.80706656     0.79100
C11         C  0.24993052  0.22028439  0.73190345     0.81500
Cd12       Cd  0.25257739  0.18223785  0.80371913     1.37500
O13         O  0.22167296  0.11580055  0.79983122    -0.53500
O14         O  0.25651779  0.18363381  0.73553231    -0.52300
C15         C  0.23954213  0.21601203  0.87667268     0.81500
O16         O  0.24376105  0.24017589  0.76167731    -0.54600
O17         O  0.18129529  0.16527112  0.79748545    -0.53100
O18         O  0.32414325  0.19866176  0.80578919    -0.53100
O19         O  0.25146989  0.18083113  0.87231497    -0.52300
C20         C  0.52031999  0.88227752  0.81024108     0.84600
N21         N  0.51997972  0.92244777  0.81114567    -0.73700
C22         C  0.48519306  0.94237635  0.81189140     0.87000
N23         N  0.45050886  0.92225803  0.81165717    -0.73700
C24         C  0.45034680  0.88209481  0.81076590     0.87100
N25         N  0.48537696  0.86180664  0.81000496    -0.75400
C26         C  0.44980703  0.12288126  0.81056771     0.84600
N27         N  0.45006690  0.08270577  0.81135840    -0.73700
C28         C  0.48482340  0.06271511  0.81202047     0.87000
N29         N  0.51954502  0.08277706  0.81181959    -0.73700
C30         C  0.51976403  0.12294506  0.81104360     0.87100
N31         N  0.48477554  0.14328340  0.81036669    -0.75400
O32         O  0.22222906  0.89209063  0.80035964    -0.53500
C33         C  0.33639186  0.84284754  0.80796157     0.79200
O34         O  0.23216505  0.77142228  0.84738121    -0.54600
C35         C  0.18683612  0.88005594  0.79696586     0.79100
C36         C  0.25041077  0.78741815  0.73212693     0.81500
Cd37       Cd  0.25245625  0.82528605  0.80404645     1.37500
O38         O  0.31064570  0.87018658  0.80688180    -0.53500
O39         O  0.25734149  0.82398683  0.73592230    -0.52300
C40         C  0.23801284  0.79180147  0.87689170     0.81500
O41         O  0.24353613  0.76753332  0.76177057    -0.54600
O42         O  0.32367331  0.80760013  0.80754012    -0.53100
O43         O  0.18145518  0.84298874  0.79706040    -0.53100
O44         O  0.25078391  0.82671267  0.87265362    -0.52300
O45         O  0.66025402  0.86973172  0.80638889    -0.53500
C46         C  0.78389329  0.87878038  0.79670508     0.79200
O47         O  0.73751261  0.77002893  0.84655804    -0.54600
C48         C  0.63420040  0.84266019  0.80663953     0.79100
C49         C  0.72087680  0.78642005  0.73141325     0.81500
Cd50       Cd  0.71800457  0.82425404  0.80330415     1.37500
O51         O  0.74852635  0.89092348  0.79991251    -0.53500
O52         O  0.71449740  0.82310231  0.73509634    -0.52300
C53         C  0.73154604  0.79030302  0.87610588     0.81500
O54         O  0.72675822  0.76640854  0.76116634    -0.54600
O55         O  0.78915002  0.84169781  0.79685647    -0.53100
O56         O  0.64653778  0.80730377  0.80546559    -0.49900
O57         O  0.71905102  0.82530940  0.87191898    -0.52300
O58         O  0.65953046  0.13572133  0.80754213    -0.53500
C59         C  0.78322671  0.12685154  0.79728049     0.79200
O60         O  0.72619180  0.23901266  0.76243602    -0.54600
C61         C  0.63353044  0.16282177  0.80845640     0.79100
C62         C  0.73129504  0.21439029  0.87758794     0.81500
Cd63       Cd  0.71726796  0.18113121  0.80458309     1.37500
O64         O  0.74786907  0.11458355  0.80019815    -0.53500
O65         O  0.71896744  0.17934345  0.87317893    -0.52300
C66         C  0.71915311  0.21924566  0.73275895     0.81500
O67         O  0.73685258  0.23501661  0.84817725    -0.54600
O68         O  0.78842178  0.16393791  0.79795860    -0.53100
O69         O  0.64590675  0.19819109  0.80790999    -0.53100
O70         O  0.71211177  0.18269058  0.73647911    -0.52300
C71         C  0.04602657  0.00382683  0.78583924     0.84600
N72         N  0.06612425  0.03892473  0.78678385    -0.73700
C73         C  0.10644399  0.03897871  0.78842622     0.87000
N74         N  0.12641395  0.00424067  0.78929859    -0.73700
C75         C  0.10679549  0.96929692  0.78844492     0.87100
N76         N  0.06647602  0.96894010  0.78679875    -0.75400
C77         C  0.98528946  0.44199635  0.03464389     0.84600
N78         N  0.02037124  0.42189138  0.03563735    -0.73700
C79         C  0.02039254  0.38158746  0.03759949     0.87000
N80         N  0.98563926  0.36164934  0.03874685    -0.73700
C81         C  0.95071514  0.38128313  0.03784256     0.87100
N82         N  0.95038843  0.42158317  0.03587734    -0.75400
C83         C  0.86482685  0.96756151  0.05772576     0.84600
N84         N  0.84442562  0.00251605  0.05866456    -0.73700
C85         C  0.86477210  0.03752001  0.05828346     0.87000
N86         N  0.90491593  0.03732162  0.05694243    -0.73700
C87         C  0.92495610  0.00261648  0.05598379     0.87100
N88         N  0.90497693  0.96785090  0.05640186    -0.75400
C89         C  0.10531425  0.03812760  0.05761310     0.84600
N90         N  0.06516185  0.03778828  0.05629118    -0.73700
C91         C  0.04521971  0.00299884  0.05588456     0.87000
N92         N  0.06529554  0.96831644  0.05684839    -0.73700
C93         C  0.10543904  0.96816340  0.05818248     0.87100
N94         N  0.12574944  0.00319016  0.05855985    -0.75400
O95         O  0.85253652  0.17731810  0.05736437    -0.53500
C96         C  0.86172373  0.30110685  0.04706426     0.79200
O97         O  0.74919528  0.24376561  0.01260524    -0.54600
C98         C  0.82532345  0.15141455  0.05809587     0.79100
C99         C  0.77411448  0.24940924  0.12751438     0.81500
Cd100      Cd  0.80731245  0.23523674  0.05450344     1.37500
O101        O  0.87392686  0.26570012  0.04964613    -0.53500
O102        O  0.80897163  0.23653794  0.12314795    -0.52300
C103        C  0.76895582  0.23730971  0.98280472     0.81500
O104        O  0.75368545  0.25544719  0.09807313    -0.54600
O105        O  0.82466521  0.30638280  0.04818827    -0.53100
O106        O  0.79001346  0.16393313  0.05759347    -0.53100
O107        O  0.80561103  0.23073743  0.98635029    -0.52300
O108        O  0.09735212  0.26635706  0.04880947    -0.53500
C109        C  0.14517490  0.15197499  0.05653833     0.79200
O110        O  0.22214573  0.24437435  0.01184669    -0.54600
C111        C  0.10961613  0.30175977  0.04643589     0.79100
C112        C  0.19738240  0.24897628  0.12655742     0.81500
Cd113      Cd  0.16387599  0.23571823  0.05351852     1.37500
O114        O  0.11819116  0.17811031  0.05656419    -0.53500
O115        O  0.16238452  0.23650630  0.12217014    -0.52300
C116        C  0.20236841  0.23865809  0.98192643     0.81500
O117        O  0.21780721  0.25505063  0.09712022    -0.54600
O118        O  0.18056875  0.16420888  0.05534122    -0.53100
O119        O  0.14668084  0.30697982  0.04768006    -0.53100
O120        O  0.16563993  0.23237837  0.98531884    -0.52300
O121        O  0.11758879  0.82842875  0.05700617    -0.53500
C122        C  0.10835377  0.70464662  0.04670676     0.79200
O123        O  0.22036359  0.76138657  0.01172687    -0.54600
C124        C  0.14484467  0.85428286  0.05789428     0.79100
C125        C  0.19627451  0.75628631  0.12693046     0.81500
Cd126      Cd  0.16273263  0.77048917  0.05408683     1.37500
O127        O  0.09613036  0.73999361  0.04986953    -0.53500
O128        O  0.16121119  0.76863000  0.12269396    -0.52300
C129        C  0.20052064  0.76859999  0.98213716     0.81500
O130        O  0.21675592  0.75076654  0.09742330    -0.54600
O131        O  0.14543273  0.69941370  0.04723563    -0.53100
O132        O  0.18013978  0.84171553  0.05747492    -0.53100
O133        O  0.16402801  0.77585460  0.98600030    -0.52300
O134        O  0.85199715  0.82766552  0.05645892    -0.53500
C135        C  0.86049624  0.70405229  0.04655959     0.79200
O136        O  0.75196921  0.75104366  0.09656797    -0.54600
C137        C  0.82498220  0.85377008  0.05651098     0.79100
C138        C  0.76860708  0.76740107  0.98139426     0.81500
Cd139      Cd  0.80633270  0.77011002  0.05331696     1.37500
O140        O  0.87281794  0.73938841  0.04948515    -0.53500
O141        O  0.80523568  0.77404780  0.98512709    -0.52300
C142        C  0.77229236  0.75684353  0.12611539     0.81500
O143        O  0.74861557  0.76121309  0.01110621    -0.54600
O144        O  0.82340247  0.69891145  0.04711424    -0.53100
O145        O  0.78959265  0.84152423  0.05533063    -0.53100
O146        O  0.80740727  0.76905826  0.12192937    -0.52300
C147        C  0.98474204  0.56382733  0.03458098     0.84600
N148        N  0.01964848  0.58423621  0.03565209    -0.73700
C149        C  0.01933416  0.62453613  0.03759118     0.87000
N150        N  0.98441993  0.64417646  0.03863412    -0.73700
C151        C  0.94966490  0.62423616  0.03765434     0.87100
N152        N  0.94967051  0.58393450  0.03571848    -0.75400
C153        C  0.48481676  0.06427817  0.53461190     0.84600
N154        N  0.44973667  0.08438865  0.53559911    -0.73700
C155        C  0.44971941  0.12469207  0.53757481     0.87000
N156        N  0.48447469  0.14462474  0.53874166    -0.73700
C157        C  0.51939749  0.12498733  0.53784314     0.87100
N158        N  0.51972011  0.08468738  0.53586442    -0.75400
O159        O  0.35191233  0.32816538  0.55649210    -0.53500
C160        C  0.36049072  0.20452414  0.54640577     0.79200
O161        O  0.25230451  0.25118724  0.59711314    -0.54600
C162        C  0.32493005  0.35430219  0.55649942     0.79100
C163        C  0.26770312  0.26763328  0.48192282     0.81500
Cd164      Cd  0.30621960  0.27056151  0.55349299     1.37500
O165        O  0.37274911  0.23992785  0.54878644    -0.53500
O166        O  0.30444266  0.27385383  0.48529228    -0.52300
C167        C  0.27271771  0.25730285  0.62654377     0.81500
O168        O  0.24792489  0.26196808  0.51185663    -0.54600
O169        O  0.32342585  0.19930035  0.54764523    -0.53100
O170        O  0.28953462  0.34207091  0.55533450    -0.53100
O171        O  0.30770129  0.26981125  0.62214433    -0.52300
C172        C  0.36478774  0.46815027  0.55763041     0.84600
N173        N  0.40494110  0.46849408  0.55633663    -0.73700
C174        C  0.42488061  0.50328550  0.55595289     0.87000
N175        N  0.40480040  0.53796555  0.55691110    -0.73700
C176        C  0.36465561  0.53811400  0.55821743     0.87100
N177        N  0.34434804  0.50308500  0.55857091    -0.75400
C178        C  0.60527449  0.53872421  0.55781142     0.84600
N179        N  0.62567496  0.50376854  0.55873958    -0.73700
C180        C  0.60532860  0.46876451  0.55835281     0.87000
N181        N  0.56518470  0.46896427  0.55701650    -0.73700
C182        C  0.54514512  0.50367019  0.55606820     0.87100
N183        N  0.56512431  0.53843538  0.55649181    -0.75400
O184        O  0.61757122  0.32896157  0.55739706    -0.53500
C185        C  0.60838706  0.20516723  0.54707812     0.79200
O186        O  0.72093285  0.26253767  0.51262263    -0.54600
C187        C  0.64478167  0.35486753  0.55813751     0.79100
C188        C  0.69598122  0.25684672  0.62753040     0.81500
Cd189      Cd  0.66279844  0.27104302  0.55452369     1.37500
O190        O  0.59618222  0.24057134  0.54968700    -0.53500
O191        O  0.66112466  0.26971813  0.62316895    -0.52300
C192        C  0.70118307  0.26900442  0.48282230     0.81500
O193        O  0.71641572  0.25081631  0.59808641    -0.54600
O194        O  0.64544700  0.19989595  0.54817371    -0.53100
O195        O  0.68009262  0.34235097  0.55763456    -0.53100
O196        O  0.66452552  0.27557136  0.48636826    -0.52300
O197        O  0.59731178  0.76689638  0.54950087    -0.53500
C198        C  0.64513116  0.65251413  0.55658485     0.79200
O199        O  0.72153443  0.74503417  0.51113130    -0.54600
C200        C  0.60963253  0.80223224  0.54656324     0.79100
C201        C  0.69782111  0.74946518  0.62613627     0.81500
Cd202      Cd  0.66379576  0.73617305  0.55334622     1.37500
O203        O  0.61812200  0.67862447  0.55653972    -0.53500
O204        O  0.66270008  0.73726993  0.62195773    -0.52300
C205        C  0.70155311  0.73883875  0.48142033     0.81500
O206        O  0.71815522  0.75523968  0.59658555    -0.54600
O207        O  0.68052239  0.66475326  0.55538083    -0.53100
O208        O  0.64672645  0.80737309  0.54711138    -0.53100
O209        O  0.66492056  0.73220797  0.48515477    -0.52300
O210        O  0.37397122  0.76625470  0.54982970    -0.53500
C211        C  0.32524279  0.65199041  0.55789359     0.79200
O212        O  0.25334644  0.75556358  0.59740879    -0.54600
C213        C  0.36176123  0.80160743  0.54667848     0.79100
C214        C  0.26954489  0.73767012  0.48214687     0.81500
Cd215      Cd  0.30735667  0.73578322  0.55407348     1.37500
O216        O  0.35249861  0.67784375  0.55698169    -0.53500
O217        O  0.30604814  0.73046239  0.48598726    -0.52300
C218        C  0.27380966  0.75000249  0.62691485     0.81500
O219        O  0.24970134  0.74484025  0.51174987    -0.54600
O220        O  0.28994769  0.66455772  0.55748943    -0.53100
O221        O  0.32468434  0.80685421  0.54722692    -0.53100
O222        O  0.30885716  0.73761194  0.62267780    -0.52300
C223        C  0.48536654  0.94244094  0.53454076     0.84600
N224        N  0.45046411  0.92202265  0.53560590    -0.73700
C225        C  0.45078736  0.88172233  0.53755457     0.87000
N226        N  0.48570595  0.86209133  0.53861234    -0.73700
C227        C  0.52045696  0.88203956  0.53763821     0.87100
N228        N  0.52044242  0.92234158  0.53569348    -0.75400
C229        C  0.42411447  0.50245861  0.28583597     0.84600
N230        N  0.40401505  0.46736216  0.28678484    -0.73700
C231        C  0.36369531  0.46731005  0.28843271     0.87000
N232        N  0.34372709  0.50204936  0.28930672    -0.73700
C233        C  0.36334746  0.53699202  0.28844951     0.87100
N234        N  0.40366727  0.53734669  0.28679771    -0.75400
C235        C  0.02031794  0.38339324  0.31052161     0.84600
N236        N  0.98535356  0.36298440  0.31030436    -0.73700
C237        C  0.95036159  0.38331723  0.31096772     0.87000
N238        N  0.95057248  0.42348439  0.31174681    -0.73700
C239        C  0.98529034  0.44355208  0.31196362     0.87100
N240        N  0.02005054  0.42356773  0.31131481    -0.75400
C241        C  0.94980520  0.62399026  0.31018034     0.84600
N242        N  0.95013782  0.58382026  0.31107997    -0.73700
C243        C  0.98492056  0.56388634  0.31184245     0.87000
N244        N  0.01960776  0.58399868  0.31162951    -0.73700
C245        C  0.01977741  0.62416160  0.31074357     0.87100
N246        N  0.98475125  0.64445592  0.30996655    -0.75400
O247        O  0.24846280  0.39048918  0.29983474    -0.53500
C248        C  0.13394273  0.34308617  0.30704493     0.79200
O249        O  0.22636421  0.26611350  0.26167722    -0.54600
C250        C  0.28377936  0.37812337  0.29693812     0.79100
C251        C  0.23054213  0.29028775  0.37667578     0.81500
Cd252      Cd  0.21755126  0.32405558  0.30371363     1.37500
O253        O  0.16020222  0.36995537  0.30688518    -0.53500
O254        O  0.21860744  0.32546511  0.37231008    -0.52300
C255        C  0.22019949  0.28600393  0.23190162     0.81500
O256        O  0.23621235  0.26976408  0.34722921    -0.54600
O257        O  0.14598811  0.30763240  0.30576902    -0.53100
O258        O  0.28883846  0.34101645  0.29748216    -0.53100
O259        O  0.21362556  0.32265732  0.23552632    -0.52300
O260        O  0.72226675  0.39169260  0.30021668    -0.53500
C261        C  0.83660048  0.34344389  0.30836904     0.79200
O262        O  0.73327791  0.27128225  0.34819154    -0.54600
C263        C  0.68690875  0.37942702  0.29730438     0.79100
C264        C  0.75094834  0.28701492  0.23274264     0.81500
Cd265      Cd  0.75286403  0.32514195  0.30455851     1.37500
O266        O  0.81060548  0.37054775  0.30742250    -0.53500
O267        O  0.75797737  0.32357334  0.23644858    -0.52300
C268        C  0.73886429  0.29191384  0.37759097     0.81500
O269        O  0.74393373  0.26725100  0.26243019    -0.54600
O270        O  0.82421939  0.30807566  0.30787484    -0.53100
O271        O  0.68171259  0.34234038  0.29796549    -0.53100
O272        O  0.75121426  0.32695050  0.37315914    -0.52300
O273        O  0.80987829  0.63653888  0.30630178    -0.53500
C274        C  0.68623771  0.62750213  0.29672811     0.79200
O275        O  0.73263069  0.73621972  0.34657985    -0.54600
C276        C  0.83593100  0.66361103  0.30656869     0.79100
C277        C  0.74924264  0.71987496  0.23139868     0.81500
Cd278      Cd  0.75213087  0.68202232  0.30328651     1.37500
O279        O  0.72160310  0.61535645  0.29993331    -0.53500
O280        O  0.75561074  0.68318947  0.23507341    -0.52300
C281        C  0.73862075  0.71593489  0.37611715     0.81500
O282        O  0.74337858  0.73988082  0.26115853    -0.54600
O283        O  0.68098447  0.66458544  0.29686189    -0.53100
O284        O  0.82359381  0.69896851  0.30542774    -0.53100
O285        O  0.75112782  0.68093569  0.37190774    -0.52300
O286        O  0.15948862  0.63607005  0.30692288    -0.53500
C287        C  0.28330259  0.62622993  0.29697878     0.79200
O288        O  0.22657367  0.73875000  0.26178309    -0.54600
C289        C  0.13373549  0.66340428  0.30797430     0.79100
C290        C  0.23206639  0.71446413  0.37691267     0.81500
Cd291      Cd  0.21766723  0.68098606  0.30406228     1.37500
O292        O  0.24791074  0.61418878  0.30037243    -0.53500
O293        O  0.21930013  0.67955273  0.37267147    -0.52300
C294        C  0.21970003  0.71886862  0.23214011     0.81500
O295        O  0.23792944  0.73484588  0.34740352    -0.54600
O296        O  0.28867697  0.66329837  0.29707387    -0.53100
O297        O  0.14644570  0.69865433  0.30752778    -0.53100
O298        O  0.21278496  0.68229613  0.23593629    -0.52300
C299        C  0.54599803  0.50301669  0.28589441     0.84600
N300        N  0.56614874  0.53808658  0.28678902    -0.73700
C301        C  0.60646824  0.53808523  0.28845710     0.87000
N302        N  0.62638302  0.50331929  0.28940179    -0.73700
C303        C  0.60670942  0.46840546  0.28859652     0.87100
N304        N  0.56639291  0.46810214  0.28692658    -0.75400
C305        C  0.65359920  0.60020674  0.29309040    -0.08900
C306        C  0.62906276  0.57423057  0.29046028    -0.10500
C307        C  0.62954420  0.43243045  0.29073795    -0.08900
C308        C  0.65420159  0.40659264  0.29347366    -0.10500
C309        C  0.91192463  0.64377315  0.30905495    -0.08900
C310        C  0.87770627  0.65451237  0.30799737    -0.10500
C311        C  0.05760159  0.64408419  0.31013844    -0.08900
C312        C  0.09187247  0.65469362  0.30937014    -0.10500
C313        C  0.91255688  0.36338473  0.31041091    -0.08900
C314        C  0.87836839  0.35253868  0.30969785    -0.10500
C315        C  0.09225938  0.35251848  0.30848502    -0.08900
C316        C  0.05812973  0.36350694  0.30950409    -0.10500
C317        C  0.98521480  0.48590580  0.31239472    -0.08900
C318        C  0.98504998  0.52153483  0.31236160    -0.10500
C319        C  0.46706103  0.50267896  0.28491272    -0.08900
C320        C  0.50305300  0.50284823  0.28493246    -0.10500
C321        C  0.31585786  0.59885354  0.29321972    -0.08900
C322        C  0.34046182  0.57295007  0.29053295    -0.10500
C323        C  0.31656791  0.40521956  0.29320746    -0.08900
C324        C  0.34115057  0.43114208  0.29050949    -0.10500
C325        C  0.25174021  0.73601323  0.44554802    -0.08900
C326        C  0.24098950  0.72920649  0.41381864    -0.10500
C327        C  0.38897195  0.83425659  0.54268656    -0.08900
C328        C  0.41482416  0.85888369  0.53980266    -0.10500
C329        C  0.73001350  0.73083160  0.41302931    -0.08900
C330        C  0.71934716  0.73752943  0.44480388    -0.10500
C331        C  0.58250887  0.83495832  0.54275233    -0.08900
C332        C  0.55659451  0.85950991  0.53991813    -0.10500
C333        C  0.71922409  0.27059914  0.44631262    -0.08900
C334        C  0.73004207  0.27730517  0.41457670    -0.10500
C335        C  0.62512680  0.57656711  0.55800879    -0.08900
C336        C  0.63593205  0.61077040  0.55766147    -0.10500
C337        C  0.63588167  0.39669160  0.55908624    -0.08900
C338        C  0.62520926  0.43094195  0.55909236    -0.10500
C339        C  0.34473828  0.57591223  0.55894850    -0.08900
C340        C  0.33407879  0.61016275  0.55891181    -0.10500
C341        C  0.46720593  0.50342127  0.55509527    -0.08900
C342        C  0.50282217  0.50358630  0.55513531    -0.10500
C343        C  0.24961188  0.26882986  0.44543761    -0.08900
C344        C  0.23892649  0.27545029  0.41365571    -0.10500
C345        C  0.33416421  0.39605844  0.55750607    -0.08900
C346        C  0.34497344  0.43027093  0.55782512    -0.10500
C347        C  0.48517634  0.98536732  0.53343643    -0.08900
C348        C  0.48500499  0.02135142  0.53345913    -0.10500
C349        C  0.41356871  0.14724796  0.53970496    -0.08900
C350        C  0.38764750  0.17181136  0.54250870    -0.10500
C351        C  0.58119230  0.17248808  0.54309870    -0.08900
C352        C  0.55535928  0.14783450  0.54019969    -0.10500
C353        C  0.75729574  0.74833157  0.16301563    -0.08900
C354        C  0.75053560  0.73769203  0.19478904    -0.10500
C355        C  0.88761854  0.67132545  0.04275352    -0.08900
C356        C  0.91353148  0.64677241  0.03992378    -0.10500
C357        C  0.21109999  0.74744030  0.16382681    -0.08900
C358        C  0.21799443  0.73670156  0.19554659    -0.10500
C359        C  0.08115422  0.67198955  0.04272293    -0.08900
C360        C  0.05530168  0.64736445  0.03984251    -0.10500
C361        C  0.21885300  0.26810444  0.19532915    -0.08900
C362        C  0.21215011  0.25745990  0.16354700    -0.10500
C363        C  0.75947237  0.25828244  0.16447653    -0.08900
C364        C  0.75265033  0.26907548  0.19619559    -0.10500
C365        C  0.13594307  0.11021763  0.05753683    -0.08900
C366        C  0.12513192  0.07600530  0.05783715    -0.10500
C367        C  0.13600896  0.89611142  0.05890147    -0.08900
C368        C  0.12535155  0.93036271  0.05892711    -0.10500
C369        C  0.83421980  0.10959076  0.05903508    -0.08900
C370        C  0.84489060  0.07534078  0.05903340    -0.10500
C371        C  0.83417335  0.89551524  0.05757494    -0.08900
C372        C  0.84497511  0.92971891  0.05791990    -0.10500
C373        C  0.00289495  0.00286662  0.05501229    -0.08900
C374        C  0.96727883  0.00270161  0.05504900    -0.10500
C375        C  0.98492364  0.52090346  0.03348194    -0.08900
C376        C  0.98509572  0.48492102  0.03350207    -0.10500
C377        C  0.91475473  0.35843475  0.04018762    -0.08900
C378        C  0.88891930  0.33378399  0.04308415    -0.10500
C379        C  0.08246517  0.33447532  0.04254105    -0.08900
C380        C  0.05654444  0.35903751  0.03973637    -0.10500
C381        C  0.71061836  0.24796898  0.66449002    -0.08900
C382        C  0.71744174  0.23717827  0.69620856    -0.10500
C383        C  0.74011854  0.22901764  0.91456179    -0.08900
C384        C  0.75092845  0.23572751  0.94629508    -0.10500
C385        C  0.71957838  0.76861228  0.69480280    -0.08900
C386        C  0.71281547  0.75797808  0.66303158    -0.10500
C387        C  0.75082623  0.76868956  0.94477776    -0.08900
C388        C  0.74016226  0.77538652  0.91300581    -0.10500
C389        C  0.25209918  0.76959224  0.69553262    -0.08900
C390        C  0.25898425  0.75885428  0.66381119    -0.10500
C391        C  0.21831671  0.77025118  0.94552871    -0.08900
C392        C  0.22907127  0.77705616  0.91379643    -0.10500
C393        C  0.15428610  0.90743700  0.79320871    -0.08900
C394        C  0.12968271  0.93334056  0.79052507    -0.10500
C395        C  0.55757332  0.14287265  0.81050376    -0.08900
C396        C  0.59176235  0.15372141  0.80979697    -0.10500
C397        C  0.59242394  0.85175940  0.80807811    -0.08900
C398        C  0.55820467  0.86249928  0.80913050    -0.10500
C399        C  0.41252560  0.86216525  0.81014280    -0.08900
C400        C  0.37825631  0.85155183  0.80936399    -0.10500
C401        C  0.48505678  0.98472966  0.81241429    -0.08900
C402        C  0.48489161  0.02035935  0.81244960    -0.10500
C403        C  0.25795616  0.24882137  0.66353998    -0.08900
C404        C  0.25126445  0.23817976  0.69532740    -0.10500
C405        C  0.23114068  0.23085341  0.91364855    -0.08900
C406        C  0.22045155  0.23747152  0.94543225    -0.10500
C407        C  0.12898753  0.07514740  0.79049988    -0.08900
C408        C  0.15357045  0.10106854  0.79319854    -0.10500
C409        C  0.37787148  0.15377288  0.80851431    -0.08900
C410        C  0.41199866  0.14277599  0.80954025    -0.10500
C411        C  0.96708717  0.00343081  0.78492933    -0.08900
C412        C  0.00307963  0.00360355  0.78491680    -0.10500
C413        C  0.81593494  0.09968842  0.79342959    -0.08900
C414        C  0.84059322  0.07385166  0.79068606    -0.10500
C415        C  0.81653031  0.90607693  0.79304934    -0.08900
C416        C  0.84106860  0.93205197  0.79041113    -0.10500
loop_ 
_geom_bond_atom_site_label_1 
_geom_bond_atom_site_label_2 
_geom_bond_distance 
_geom_bond_site_symmetry_2 
_ccdc_geom_bond_type 
C1            N2   1.364   1_545  A
C1            N6   1.364       .  A
C1          C411   1.449       .  S
N2            C3   1.361       .  A
C3            N4   1.352   1_565  A
C3          C416   1.439       .  S
N4            C5   1.352       .  A
C5            N6   1.361       .  A
C5          C414   1.439       .  S
O7           C10   1.267       .  A
O7          Cd12   2.480       .  S
C8          C408   1.440       .  S
C8           O17   1.263       .  A
C8           O13   1.266       .  A
O9           C15   1.266       .  A
O9          Cd12   2.474       .  S
C10         C409   1.442       .  S
C10          O18   1.264       .  A
C11         C404   1.429       .  S
C11          O16   1.267       .  A
C11          O14   1.262       .  A
Cd12         O19   2.429       .  S
Cd12         O18   2.477       .  S
Cd12         O17   2.481       .  S
Cd12         O13   2.475       .  S
Cd12         O16   2.474       .  S
Cd12         O14   2.418       .  S
C15         C405   1.430       .  S
C15          O19   1.262       .  A
C20          N21   1.355       .  A
C20          N25   1.366       .  A
C20         C398   1.442       .  S
N21          C22   1.352       .  A
C22          N23   1.352       .  A
C22         C401   1.428       .  S
N23          C24   1.355       .  A
C24          N25   1.366       .  A
C24         C399   1.442       .  S
C26          N27   1.355       .  A
C26          N31   1.365       .  A
C26         C410   1.441       .  S
N27          C28   1.353       .  A
C28          N29   1.352       .  A
C28         C402   1.429       .  S
N29          C30   1.355       .  A
C30          N31   1.365       .  A
C30         C395   1.441       .  S
O32          C35   1.266       .  A
O32         Cd37   2.476       .  S
C33         C400   1.443       .  S
C33          O42   1.264       .  A
C33          O38   1.267       .  A
O34          C40   1.266       .  A
O34         Cd37   2.474       .  S
C35         C393   1.441       .  S
C35          O43   1.263       .  A
C36         C389   1.429       .  S
C36          O41   1.267       .  A
C36          O39   1.262       .  A
Cd37         O44   2.430       .  S
Cd37         O43   2.480       .  S
Cd37         O42   2.478       .  S
Cd37         O38   2.481       .  S
Cd37         O41   2.475       .  S
Cd37         O39   2.418       .  S
C40         C392   1.430       .  S
C40          O44   1.263       .  A
O45          C48   1.267       .  A
O45         Cd50   2.482       .  S
C46         C415   1.441       .  S
C46          O55   1.263       .  A
C46          O51   1.266       .  A
O47          C53   1.266       .  A
O47         Cd50   2.474       .  S
C48         C397   1.443       .  S
C48          O56   1.264       .  A
C49         C385   1.429       .  S
C49          O54   1.267       .  A
C49          O52   1.262       .  A
Cd50         O57   2.430       .  S
Cd50         O56   2.478       .  S
Cd50         O55   2.481       .  S
Cd50         O51   2.476       .  S
Cd50         O54   2.474       .  S
Cd50         O52   2.418       .  S
C53         C388   1.430       .  S
C53          O57   1.262       .  A
O58          C61   1.267       .  A
O58         Cd63   2.479       .  S
C59         C413   1.440       .  S
C59          O68   1.263       .  A
C59          O64   1.266       .  A
O60          C66   1.267       .  A
O60         Cd63   2.475       .  S
C61         C396   1.442       .  S
C61          O69   1.264       .  A
C62         C383   1.430       .  S
C62          O67   1.266       .  A
C62          O65   1.263       .  A
Cd63         O70   2.418       .  S
Cd63         O69   2.477       .  S
Cd63         O68   2.480       .  S
Cd63         O64   2.475       .  S
Cd63         O67   2.474       .  S
Cd63         O65   2.430       .  S
C66         C382   1.430       .  S
C66          O70   1.262       .  A
C71          N72   1.364       .  A
C71          N76   1.364   1_545  A
C71         C412   1.449       .  S
N72          C73   1.361       .  A
C73          N74   1.352       .  A
C73         C407   1.439       .  S
N74          C75   1.352   1_545  A
C75          N76   1.361       .  A
C75         C394   1.439       .  S
C77          N78   1.364   1_655  A
C77          N82   1.364       .  A
C77         C376   1.448       .  S
N78          C79   1.361       .  A
C79          N80   1.352   1_455  A
C79         C380   1.439       .  S
N80          C81   1.352       .  A
C81          N82   1.361       .  A
C81         C377   1.439       .  S
C83          N84   1.365   1_565  A
C83          N88   1.355       .  A
C83         C372   1.441       .  S
N84          C85   1.365       .  A
C85          N86   1.355       .  A
C85         C370   1.441       .  S
N86          C87   1.352       .  A
C87          N88   1.352   1_545  A
C87         C374   1.428       .  S
C89          N90   1.355       .  A
C89          N94   1.366       .  A
C89         C366   1.442       .  S
N90          C91   1.352       .  A
C91          N92   1.352   1_545  A
C91         C373   1.428       .  S
N92          C93   1.355       .  A
C93          N94   1.365   1_565  A
C93         C368   1.441       .  S
O95          C98   1.267       .  A
O95        Cd100   2.481       .  S
C96         C378   1.441       .  S
C96         O105   1.263       .  A
C96         O101   1.266       .  A
O97         C103   1.267   1_554  A
O97        Cd100   2.475       .  S
C98         C369   1.442       .  S
C98         O106   1.264       .  A
C99         C363   1.430       .  S
C99         O104   1.266       .  A
C99         O102   1.263       .  A
Cd100       O107   2.418   1_554  S
Cd100       O106   2.477       .  S
Cd100       O105   2.480       .  S
Cd100       O101   2.476       .  S
Cd100       O104   2.473       .  S
Cd100       O102   2.431       .  S
C103        C384   1.430       .  S
C103        O107   1.262       .  A
O108        C111   1.266       .  A
O108       Cd113   2.476       .  S
C109        C365   1.443       .  S
C109        O118   1.264       .  A
C109        O114   1.267       .  A
O110        C116   1.267   1_554  A
O110       Cd113   2.474       .  S
C111        C379   1.441       .  S
C111        O119   1.263       .  A
C112        C362   1.430       .  S
C112        O117   1.266       .  A
C112        O115   1.263       .  A
Cd113       O120   2.418   1_554  S
Cd113       O119   2.481       .  S
Cd113       O118   2.477       .  S
Cd113       O114   2.482       .  S
Cd113       O117   2.473       .  S
Cd113       O115   2.431       .  S
C116        C406   1.429       .  S
C116        O120   1.262       .  A
O121        C124   1.267       .  A
O121       Cd126   2.479       .  S
C122        C359   1.440       .  S
C122        O131   1.263       .  A
C122        O127   1.266       .  A
O123        C129   1.267   1_554  A
O123       Cd126   2.474       .  S
C124        C367   1.442       .  S
C124        O132   1.264       .  A
C125        C357   1.430       .  S
C125        O130   1.266       .  A
C125        O128   1.263       .  A
Cd126       O133   2.418   1_554  S
Cd126       O132   2.476       .  S
Cd126       O131   2.479       .  S
Cd126       O127   2.475       .  S
Cd126       O130   2.473       .  S
Cd126       O128   2.430       .  S
C129        C391   1.429       .  S
C129        O133   1.262       .  A
O134        C137   1.267       .  A
O134       Cd139   2.480       .  S
C135        C355   1.440       .  S
C135        O144   1.263       .  A
C135        O140   1.266       .  A
O136        C142   1.266       .  A
O136       Cd139   2.474       .  S
C137        C371   1.442       .  S
C137        O145   1.264       .  A
C138        C387   1.429       .  S
C138        O143   1.267   1_556  A
C138        O141   1.262       .  A
Cd139       O146   2.430       .  S
Cd139       O145   2.475       .  S
Cd139       O144   2.479       .  S
Cd139       O140   2.474       .  S
Cd139       O143   2.472       .  S
Cd139       O141   2.418   1_554  S
C142        C353   1.430       .  S
C142        O146   1.263       .  A
C147        N148   1.364   1_655  A
C147        N152   1.364       .  A
C147        C375   1.448       .  S
N148        C149   1.361       .  A
C149        N150   1.352   1_455  A
C149        C360   1.439       .  S
N150        C151   1.352       .  A
C151        N152   1.361       .  A
C151        C356   1.439       .  S
C153        N154   1.364       .  A
C153        N158   1.364       .  A
C153        C348   1.448       .  S
N154        C155   1.361       .  A
C155        N156   1.352       .  A
C155        C349   1.439       .  S
N156        C157   1.352       .  A
C157        N158   1.361       .  A
C157        C352   1.439       .  S
O159        C162   1.267       .  A
O159       Cd164   2.482       .  S
C160        C350   1.441       .  S
C160        O169   1.263       .  A
C160        O165   1.266       .  A
O161        C167   1.266       .  A
O161       Cd164   2.473       .  S
C162        C345   1.443       .  S
C162        O170   1.264       .  A
C163        C343   1.429       .  S
C163        O168   1.267       .  A
C163        O166   1.262       .  A
Cd164       O171   2.431       .  S
Cd164       O170   2.477       .  S
Cd164       O169   2.481       .  S
Cd164       O165   2.476       .  S
Cd164       O168   2.474       .  S
Cd164       O166   2.418       .  S
C167        C403   1.430       .  S
C167        O171   1.263       .  A
C172        N173   1.355       .  A
C172        N177   1.366       .  A
C172        C346   1.442       .  S
N173        C174   1.352       .  A
C174        N175   1.352       .  A
C174        C341   1.428       .  S
N175        C176   1.355       .  A
C176        N177   1.365       .  A
C176        C339   1.441       .  S
C178        N179   1.365       .  A
C178        N183   1.355       .  A
C178        C335   1.441       .  S
N179        C180   1.365       .  A
C180        N181   1.355       .  A
C180        C338   1.441       .  S
N181        C182   1.352       .  A
C182        N183   1.352       .  A
C182        C342   1.428       .  S
O184        C187   1.267       .  A
O184       Cd189   2.481       .  S
C185        C351   1.441       .  S
C185        O194   1.263       .  A
C185        O190   1.266       .  A
O186        C192   1.267       .  A
O186       Cd189   2.475       .  S
C187        C337   1.443       .  S
C187        O195   1.264       .  A
C188        C381   1.430       .  S
C188        O193   1.266       .  A
C188        O191   1.263       .  A
Cd189       O196   2.419       .  S
Cd189       O195   2.477       .  S
Cd189       O194   2.480       .  S
Cd189       O190   2.476       .  S
Cd189       O193   2.473       .  S
Cd189       O191   2.431       .  S
C192        C333   1.430       .  S
C192        O196   1.262       .  A
O197        C200   1.266       .  A
O197       Cd202   2.474       .  S
C198        C336   1.442       .  S
C198        O207   1.264       .  A
C198        O203   1.267       .  A
O199        C205   1.267       .  A
O199       Cd202   2.473       .  S
C200        C331   1.440       .  S
C200        O208   1.263       .  A
C201        C386   1.430       .  S
C201        O206   1.266       .  A
C201        O204   1.262       .  A
Cd202       O209   2.418       .  S
Cd202       O208   2.479       .  S
Cd202       O207   2.475       .  S
Cd202       O203   2.480       .  S
Cd202       O206   2.474       .  S
Cd202       O204   2.430       .  S
C205        C330   1.429       .  S
C205        O209   1.262       .  A
O210        C213   1.266       .  A
O210       Cd215   2.475       .  S
C211        C340   1.442       .  S
C211        O220   1.264       .  A
C211        O216   1.267       .  A
O212        C218   1.266       .  A
O212       Cd215   2.473       .  S
C213        C327   1.440       .  S
C213        O221   1.263       .  A
C214        C325   1.429       .  S
C214        O219   1.267       .  A
C214        O217   1.262       .  A
Cd215       O222   2.430       .  S
Cd215       O221   2.479       .  S
Cd215       O220   2.476       .  S
Cd215       O216   2.479       .  S
Cd215       O219   2.474       .  S
Cd215       O217   2.418       .  S
C218        C390   1.430       .  S
C218        O222   1.263       .  A
C223        N224   1.364       .  A
C223        N228   1.364       .  A
C223        C347   1.448       .  S
N224        C225   1.361       .  A
C225        N226   1.352       .  A
C225        C328   1.439       .  S
N226        C227   1.352       .  A
C227        N228   1.361       .  A
C227        C332   1.439       .  S
C229        N230   1.364       .  A
C229        N234   1.364       .  A
C229        C319   1.449       .  S
N230        C231   1.361       .  A
C231        N232   1.352       .  A
C231        C324   1.439       .  S
N232        C233   1.352       .  A
C233        N234   1.361       .  A
C233        C322   1.439       .  S
C235        N236   1.365   1_455  A
C235        N240   1.355       .  A
C235        C316   1.441       .  S
N236        C237   1.365       .  A
C237        N238   1.355       .  A
C237        C313   1.441       .  S
N238        C239   1.352       .  A
C239        N240   1.353   1_655  A
C239        C317   1.428       .  S
C241        N242   1.355       .  A
C241        N246   1.366       .  A
C241        C309   1.442       .  S
N242        C243   1.352       .  A
C243        N244   1.352   1_655  A
C243        C318   1.428       .  S
N244        C245   1.355       .  A
C245        N246   1.366   1_455  A
C245        C311   1.442       .  S
O247        C250   1.266       .  A
O247       Cd252   2.475       .  S
C248        C315   1.442       .  S
C248        O257   1.264       .  A
C248        O253   1.267       .  A
O249        C255   1.267       .  A
O249       Cd252   2.474       .  S
C250        C323   1.440       .  S
C250        O258   1.263       .  A
C251        C344   1.430       .  S
C251        O256   1.266       .  A
C251        O254   1.262       .  A
Cd252       O259   2.418       .  S
Cd252       O258   2.481       .  S
Cd252       O257   2.477       .  S
Cd252       O253   2.480       .  S
Cd252       O256   2.474       .  S
Cd252       O254   2.429       .  S
C255        C361   1.429       .  S
C255        O259   1.262       .  A
O260        C263   1.266       .  A
O260       Cd265   2.475       .  S
C261        C314   1.442       .  S
C261        O270   1.264       .  A
C261        O266   1.267       .  A
O262        C268   1.266       .  A
O262       Cd265   2.474       .  S
C263        C308   1.440       .  S
C263        O271   1.263       .  A
C264        C364   1.430       .  S
C264        O269   1.267       .  A
C264        O267   1.262       .  A
Cd265       O272   2.430       .  S
Cd265       O271   2.480       .  S
Cd265       O270   2.477       .  S
Cd265       O266   2.479       .  S
Cd265       O269   2.475       .  S
Cd265       O267   2.418       .  S
C268        C334   1.430       .  S
C268        O272   1.263       .  A
O273        C276   1.267       .  A
O273       Cd278   2.482       .  S
C274        C305   1.441       .  S
C274        O283   1.263       .  A
C274        O279   1.266       .  A
O275        C281   1.266       .  A
O275       Cd278   2.474       .  S
C276        C310   1.443       .  S
C276        O284   1.264       .  A
C277        C354   1.429       .  S
C277        O282   1.267       .  A
C277        O280   1.262       .  A
Cd278       O285   2.430       .  S
Cd278       O284   2.478       .  S
Cd278       O283   2.481       .  S
Cd278       O279   2.475       .  S
Cd278       O282   2.474       .  S
Cd278       O280   2.418       .  S
C281        C329   1.430       .  S
C281        O285   1.262       .  A
O286        C289   1.267       .  A
O286       Cd291   2.481       .  S
C287        C321   1.441       .  S
C287        O296   1.263       .  A
C287        O292   1.266       .  A
O288        C294   1.267       .  A
O288       Cd291   2.475       .  S
C289        C312   1.443       .  S
C289        O297   1.264       .  A
C290        C326   1.430       .  S
C290        O295   1.266       .  A
C290        O293   1.263       .  A
Cd291       O298   2.418       .  S
Cd291       O297   2.478       .  S
Cd291       O296   2.480       .  S
Cd291       O292   2.476       .  S
Cd291       O295   2.474       .  S
Cd291       O293   2.430       .  S
C294        C358   1.430       .  S
C294        O298   1.262       .  A
C299        N300   1.364       .  A
C299        N304   1.364       .  A
C299        C320   1.449       .  S
N300        C301   1.361       .  A
C301        N302   1.352       .  A
C301        C306   1.439       .  S
N302        C303   1.352       .  A
C303        N304   1.361       .  A
C303        C307   1.439       .  S
C305        C306   1.209       .  T
C307        C308   1.209       .  T
C309        C310   1.210       .  T
C311        C312   1.210       .  T
C313        C314   1.210       .  T
C315        C316   1.210       .  T
C317        C318   1.202       .  T
C319        C320   1.214       .  T
C321        C322   1.209       .  T
C323        C324   1.208       .  T
C325        C326   1.203       .  T
C327        C328   1.208       .  T
C329        C330   1.202       .  T
C331        C332   1.208       .  T
C333        C334   1.203       .  T
C335        C336   1.210       .  T
C337        C338   1.210       .  T
C339        C340   1.210       .  T
C341        C342   1.201       .  T
C343        C344   1.202       .  T
C345        C346   1.210       .  T
C347        C348   1.214   1_565  T
C349        C350   1.209       .  T
C351        C352   1.209       .  T
C353        C354   1.203       .  T
C355        C356   1.208       .  T
C357        C358   1.203       .  T
C359        C360   1.208       .  T
C361        C362   1.203       .  T
C363        C364   1.203       .  T
C365        C366   1.210       .  T
C367        C368   1.210       .  T
C369        C370   1.210       .  T
C371        C372   1.210       .  T
C373        C374   1.201   1_455  T
C375        C376   1.213       .  T
C377        C378   1.209       .  T
C379        C380   1.209       .  T
C381        C382   1.203       .  T
C383        C384   1.203       .  T
C385        C386   1.202       .  T
C387        C388   1.202       .  T
C389        C390   1.203       .  T
C391        C392   1.203       .  T
C393        C394   1.209       .  T
C395        C396   1.210       .  T
C397        C398   1.210       .  T
C399        C400   1.210       .  T
C401        C402   1.202   1_565  T
C403        C404   1.203       .  T
C405        C406   1.202       .  T
C407        C408   1.208       .  T
C409        C410   1.210       .  T
C411        C412   1.214   1_655  T
C413        C414   1.209       .  T
C415        C416   1.209       .  T
