geometry optimzed in LAMMPS
_audit_creation_date              2020-11-30 
_audit_creation_method            'lammps2cif' 
_symmetry_space_group_name_H-M    'P1' 
_symmetry_Int_Tables_number       1 
_symmetry_cell_setting            triclinic 
loop_ 
_symmetry_equiv_pos_as_xyz 
  x,y,z 
_cell_length_a                    26.25570205 
_cell_length_b                    26.39517009915964 
_cell_length_c                    26.32996358369902 
_cell_angle_alpha                 90.10288421850507 
_cell_angle_beta                  90.06100369355309 
_cell_angle_gamma                 90.10236862114175 
loop_ 
_atom_site_label 
_atom_site_type_symbol 
_atom_site_fract_x 
_atom_site_fract_y 
_atom_site_fract_z 
_atom_site_charge 
O1          O  0.72603510  0.87891611  0.09813006    -0.81300
C2          C  0.52102727  0.84152589  0.08095696     0.98100
O3          O  0.56042210  0.84923523  0.05489837    -0.70400
O4          O  0.65357426  0.87191354  0.02451572    -0.74000
Al5        Al  0.62453946  0.82847932  0.07735207     1.49000
C6          C  0.65924279  0.91963790  0.02252048     0.93300
O7          O  0.62799905  0.97474905  0.15452856    -0.80200
O8          O  0.62057606  0.89996040  0.22737308    -0.73800
Al9        Al  0.67193030  0.92189921  0.12637423     1.90100
O10         O  0.55307817  0.93792745  0.15604001    -0.72900
O11         O  0.59680256  0.80811147  0.19508929    -0.72700
O12         O  0.52304023  0.84541350  0.12912355    -0.78400
O13         O  0.59629065  0.77410190  0.11904151    -0.76600
O14         O  0.62457646  0.87452473  0.12580958    -1.12700
O15         O  0.68865358  0.80462808  0.09635069    -0.71900
C16         C  0.72837612  0.83108630  0.09246282     0.98800
C17         C  0.57983350  0.97744462  0.15919830     0.95200
Al18       Al  0.57698594  0.87310114  0.17332224     1.55600
O19         O  0.65281773  0.94572500  0.06203624    -0.76500
C20         C  0.59309250  0.76967231  0.16697237     0.99400
C21         C  0.66874683  0.90443142  0.23011935     0.94300
O22         O  0.69535926  0.90236528  0.19053614    -0.81800
O23         O  0.89987651  0.22476279  0.62095647    -0.81300
C24         C  0.92897994  0.02047053  0.65479374     0.98100
O25         O  0.95362376  0.06141254  0.65241229    -0.70400
O26         O  0.97713439  0.15666762  0.62812199    -0.74000
Al27       Al  0.92546147  0.12454710  0.67137258     1.49000
C28         C  0.97889510  0.16313205  0.58026954     0.93300
O29         O  0.84796837  0.12584116  0.52266816    -0.80200
O30         O  0.77747888  0.11112530  0.59629773    -0.73800
Al31       Al  0.87427385  0.16996985  0.57726884     1.90100
O32         O  0.85531574  0.05133899  0.55799563    -0.72900
O33         O  0.80914632  0.08691670  0.68762308    -0.72700
O34         O  0.88089565  0.02072488  0.64938819    -0.78400
O35         O  0.88369872  0.09357705  0.72464158    -0.76600
O36         O  0.87802411  0.12190229  0.62390377    -1.12700
O37         O  0.90171063  0.18732689  0.69488525    -0.71900
C38         C  0.90557594  0.22709391  0.66883701     0.98800
C39         C  0.84688310  0.07775191  0.51918328     0.95200
Al40       Al  0.83411515  0.07137601  0.62281749     1.55600
O41         O  0.93979176  0.15545729  0.55351406    -0.76500
C42         C  0.83595932  0.08560218  0.72717470     0.99400
C43         C  0.77096497  0.15875446  0.59388706     0.94300
O44         O  0.80833847  0.18847101  0.59767495    -0.81800
O45         O  0.37831798  0.47646084  0.35016164    -0.81300
C46         C  0.41193957  0.27183363  0.33341802     0.98100
O47         O  0.40938749  0.31167949  0.30729645    -0.70400
O48         O  0.38827140  0.40493024  0.27790098    -0.74000
Al49       Al  0.42909080  0.37519677  0.33244493     1.49000
C50         C  0.34038543  0.41013157  0.27296716     0.93300
O51         O  0.27784755  0.38132520  0.40285545    -0.80200
O52         O  0.34945721  0.37156595  0.47790534    -0.73800
Al53       Al  0.33304353  0.42363860  0.37662977     1.90100
O54         O  0.31278600  0.30611304  0.40418100    -0.72900
O55         O  0.44171866  0.34589986  0.44972692    -0.72700
O56         O  0.40550525  0.27390521  0.38130127    -0.78400
O57         O  0.48106805  0.34475760  0.37676976    -0.76600
O58         O  0.37974574  0.37547210  0.37788247    -1.12700
O59         O  0.45254415  0.43892784  0.35398381    -0.71900
C60         C  0.42660707  0.47845304  0.34691248     0.98800
C61         C  0.27386580  0.33357331  0.40786570     0.95200
Al62       Al  0.37754193  0.32795909  0.42472083     1.55600
O63         O  0.31143811  0.40501361  0.31074952    -0.76500
C64         C  0.48172619  0.33861263  0.42463259     0.99400
C65         C  0.34567390  0.41950695  0.48120311     0.94300
O66         O  0.35051513  0.44658908  0.44217591    -0.81800
O67         O  0.02455608  0.65283828  0.87550870    -0.81300
C68         C  0.23029097  0.66439580  0.90819573     0.98100
O69         O  0.19228463  0.69298585  0.90318045    -0.70400
O70         O  0.09907023  0.72573308  0.88204282    -0.74000
Al71       Al  0.12726499  0.67182267  0.92473259     1.49000
C72         C  0.09408970  0.72838141  0.83413355     0.93300
O73         O  0.11952433  0.59626455  0.77604224    -0.80200
O74         O  0.12554930  0.52262856  0.85046338    -0.73800
Al75       Al  0.07677645  0.62468755  0.83062108     1.90100
O76         O  0.19397760  0.59223128  0.81346034    -0.72900
O77         O  0.15053849  0.55382128  0.94329765    -0.72700
O78         O  0.22542884  0.61662711  0.90483460    -0.78400
O79         O  0.15639157  0.62877705  0.97849986    -0.76600
O80         O  0.12464522  0.62373574  0.87771874    -1.12700
O81         O  0.06285010  0.65453840  0.94969542    -0.71900
C82         C  0.02277553  0.65781939  0.92362935     0.98800
C83         C  0.16749881  0.58963495  0.77366760     0.95200
Al84       Al  0.17029637  0.57496143  0.87802925     1.55600
O85         O  0.09708080  0.68884914  0.80755498    -0.76500
C86         C  0.16058071  0.58085885  0.98155901     0.99400
C87         C  0.07762764  0.52082230  0.84422902     0.94300
O88         O  0.05153610  0.56044811  0.84875438    -0.81800
C89         C  0.24682263  0.43844089  0.16698227    -0.13900
C90         C  0.26917607  0.48162521  0.14538097     0.16500
C91         C  0.31715485  0.49797815  0.16292166     0.02800
C92         C  0.34174110  0.47143614  0.20195551    -0.12400
C93         C  0.31841739  0.42950623  0.22512363    -0.03400
C94         C  0.27063199  0.41278738  0.20704463     0.02100
C95         C  0.24206615  0.50817348  0.10382399     0.08900
N96         N  0.34078047  0.54213403  0.14227759     0.65300
H97         H  0.37784828  0.48547456  0.21619585     0.18200
N98         N  0.24583198  0.36984818  0.22896928     0.75700
H99         H  0.21017888  0.42525536  0.15334807     0.09700
C100        C  0.23724379  0.48533411  0.05588099     0.03400
C101        C  0.20847625  0.50874684  0.01802537    -0.05300
C102        C  0.18473454  0.55588970  0.02621477    -0.23700
C103        C  0.18991989  0.57907172  0.07440551     0.12600
C104        C  0.21817235  0.55490736  0.11284231    -0.12900
N105        N  0.26337337  0.43929843  0.04433035     0.64300
H106        H  0.20660304  0.49055111  0.98120054     0.12100
N107        N  0.16553064  0.62606915  0.08559130     0.60900
H108        H  0.22106104  0.57239678  0.14994967     0.08300
O109        O  0.21151565  0.37644193  0.26182851    -0.40500
O110        O  0.25068166  0.32694284  0.20834954    -0.39700
O111        O  0.33275187  0.58469575  0.16260310    -0.39700
O112        O  0.37655378  0.53739867  0.11068799    -0.37400
O113        O  0.12290366  0.62567458  0.10764988    -0.38300
O114        O  0.19113559  0.66654848  0.08446167    -0.34500
O115        O  0.23847935  0.39865016  0.03947911    -0.35900
O116        O  0.30906033  0.44110517  0.02960141    -0.40200
C117        C  0.31528393  0.52027105  0.57986669    -0.13900
C118        C  0.27945774  0.49478012  0.61005398     0.16500
C119        C  0.27028832  0.44282790  0.60088287     0.02800
C120        C  0.29529431  0.41793604  0.56098319    -0.12400
C121        C  0.32924829  0.44403378  0.52920896    -0.03400
C122        C  0.34017893  0.49547242  0.53984184     0.02100
C123        C  0.25065958  0.52339902  0.64949149     0.08900
N124        N  0.23491162  0.41493909  0.63115239     0.65300
H125        H  0.28601157  0.37872231  0.55327659     0.18200
N126        N  0.37598794  0.52334998  0.50999377     0.75700
H127        H  0.32276182  0.56005652  0.58626170     0.09700
C128        C  0.27592317  0.54991679  0.68858414     0.03400
C129        C  0.24773874  0.57473444  0.72613113    -0.05300
C130        C  0.19406802  0.57382423  0.72619720    -0.23700
C131        C  0.16879182  0.55053808  0.68488564     0.12600
C132        C  0.19715834  0.52542148  0.64721231    -0.12900
N133        N  0.33022922  0.54970472  0.69247812     0.64300
H134        H  0.26831568  0.59287396  0.75682271     0.12100
N135        N  0.11454383  0.55106419  0.68092302     0.60900
H136        H  0.17727995  0.50724930  0.61613754     0.09900
O137        O  0.42160983  0.52673298  0.52474389    -0.40500
O138        O  0.36011264  0.55274101  0.47573084    -0.39700
O139        O  0.19143858  0.40469209  0.61339440    -0.39700
O140        O  0.25069948  0.39143728  0.66974488    -0.37400
O141        O  0.09309154  0.58707399  0.65787523    -0.38300
O142        O  0.08956132  0.51134810  0.69049538    -0.34500
O143        O  0.35488927  0.58922363  0.68133645    -0.35900
O144        O  0.35187029  0.51510370  0.71743287    -0.40200
C145        C  0.66491096  0.25305258  0.57238604    -0.13900
C146        C  0.63711331  0.22846617  0.53407229     0.16500
C147        C  0.64943554  0.17817021  0.52102123     0.02800
C148        C  0.69093017  0.15428139  0.54428058    -0.12400
C149        C  0.72093174  0.18012646  0.58012327    -0.03400
C150        C  0.70665402  0.22944100  0.59533666     0.02100
C151        C  0.59792039  0.25741288  0.50597295     0.08900
N152        N  0.62092422  0.15133935  0.48333462     0.65300
H153        H  0.70148611  0.11660224  0.53198332     0.18200
N154        N  0.73491255  0.25656847  0.63308104     0.75700
H155        H  0.65554751  0.29154906  0.58294780     0.09700
C156        C  0.55551135  0.27773385  0.53118950     0.03400
C157        C  0.52071721  0.30749984  0.50455353    -0.05300
C158        C  0.52617314  0.31668905  0.45206568    -0.23700
C159        C  0.56974684  0.29747489  0.42711823     0.12600
C160        C  0.60515044  0.26818300  0.45424217    -0.12900
N161        N  0.54554763  0.26589850  0.58320735     0.64300
H162        H  0.48774333  0.32124148  0.52494568     0.12100
N163        N  0.57839674  0.30648317  0.37434694     0.60900
H164        H  0.63850768  0.25389098  0.43487845     0.08300
O165        O  0.71966741  0.25633246  0.67850809    -0.40500
O166        O  0.76798102  0.28855570  0.61955577    -0.39700
O167        O  0.63979469  0.14466766  0.43978903    -0.39700
O168        O  0.58225247  0.12612136  0.49641544    -0.37400
O169        O  0.60367346  0.34491118  0.36101112    -0.38300
O170        O  0.57040688  0.27142870  0.34265979    -0.34500
O171        O  0.54922519  0.30012773  0.61652528    -0.35900
O172        O  0.52354414  0.22478420  0.59407319    -0.40200
C173        C  0.17569144  0.23540626  0.44802361    -0.13900
C174        C  0.13820309  0.26605851  0.46980089     0.16500
C175        C  0.14303838  0.31913627  0.46681723     0.02800
C176        C  0.18603925  0.34062105  0.44358389    -0.12400
C177        C  0.22493647  0.30987711  0.42356487    -0.03400
C178        C  0.21875036  0.25650655  0.42521775     0.02100
C179        C  0.09649993  0.24102717  0.49811509     0.08900
N180        N  0.10482598  0.35165821  0.48744440     0.65300
H181        H  0.18984705  0.38142938  0.44312115     0.18200
N182        N  0.25663920  0.22276882  0.40590437     0.75700
H183        H  0.17248583  0.19460370  0.45047563     0.09700
C184        C  0.06281334  0.20765438  0.47335968     0.03400
C185        C  0.02733261  0.18005674  0.50149637    -0.05300
C186        C  0.02416380  0.18500626  0.55460349    -0.23700
C187        C  0.05887397  0.21766702  0.57964057     0.12600
C188        C  0.09443268  0.24551936  0.55120013    -0.12900
N189        N  0.06302648  0.20269837  0.41931097     0.64300
H190        H  0.00095878  0.15569263  0.48126620     0.12100
N191        N  0.05809184  0.22382670  0.63356420     0.60900
H192        H  0.12120150  0.27002146  0.57072062     0.08300
O193        O  0.28900984  0.20411936  0.43598094    -0.40500
O194        O  0.25052594  0.20298585  0.36266905    -0.39700
O195        O  0.11272289  0.37370750  0.52927911    -0.39700
O196        O  0.06876148  0.36633027  0.45942080    -0.37400
O197        O  0.08395394  0.19423452  0.66089051    -0.38300
O198        O  0.04168545  0.26458530  0.65245508    -0.34500
O199        O  0.08228608  0.16378388  0.39919198    -0.35900
O200        O  0.03509164  0.23131689  0.39297891    -0.40200
C201        C  0.97606947  0.42529259  0.80530183    -0.13900
C202        C  0.00399624  0.39347682  0.77318877     0.16500
C203        C  0.05681048  0.40109579  0.76801863     0.02800
C204        C  0.08074176  0.44074891  0.79439901    -0.12400
C205        C  0.05257386  0.47401121  0.82524563    -0.03400
C206        C  0.99958601  0.46563470  0.83081430     0.02100
C207        C  0.97707256  0.35211464  0.74619569     0.08900
N208        N  0.08643384  0.36943759  0.73543347     0.65300
H209        H  0.12112175  0.44698548  0.78867200     0.18200
N210        N  0.96882712  0.49804638  0.86160912     0.75700
H211        H  0.93547332  0.41936769  0.80975148     0.09700
C212        C  0.96087213  0.30897003  0.77273589     0.03400
C213        C  0.93411399  0.27080382  0.74742194    -0.05300
C214        C  0.92348535  0.27399170  0.69503191    -0.23700
C215        C  0.93783649  0.31858313  0.66884146     0.12600
C216        C  0.96469901  0.35707180  0.69454713    -0.12900
N217        N  0.97339757  0.30231215  0.82511918     0.64300
H218        H  0.92377911  0.23737663  0.76879196     0.12100
N219        N  0.92629603  0.32517452  0.61622891     0.60900
H220        H  0.97596740  0.39084091  0.67419626     0.08300
O221        O  0.94408006  0.53341364  0.84094556    -0.40500
O222        O  0.95729836  0.48433360  0.90601750    -0.39700
O223        O  0.09812269  0.38483545  0.69162117    -0.39700
O224        O  0.10873373  0.33123745  0.75360341    -0.37400
O225        O  0.96076937  0.31918094  0.58341777    -0.38300
O226        O  0.88477880  0.34559088  0.60354979    -0.34500
O227        O  0.93939211  0.30799967  0.85844872    -0.35900
O228        O  0.01503890  0.28166758  0.83700563    -0.40200
C229        C  0.03412147  0.92775630  0.69047767    -0.13900
C230        C  0.00642335  0.89119727  0.71748222     0.16500
C231        C  0.95275281  0.89405373  0.71778610     0.02800
C232        C  0.92802704  0.93477765  0.69424872    -0.12400
C233        C  0.95582340  0.97315999  0.66976328    -0.03400
C234        C  0.00940911  0.96822392  0.66636576     0.02100
C235        C  0.03391855  0.85257854  0.74815820     0.08900
N236        N  0.92280117  0.85600653  0.74226760     0.65300
H237        H  0.88699223  0.93734848  0.69708972     0.18200
N238        N  0.03947031  0.00412446  0.63896996     0.75700
H239        H  0.07526480  0.92591973  0.68953013     0.09700
C240        C  0.06849218  0.81826945  0.72601937     0.03400
C241        C  0.09087613  0.78045095  0.75580612    -0.05300
C242        C  0.08003749  0.77615926  0.80794737    -0.23700
C243        C  0.04879160  0.81314948  0.83089896     0.12600
C244        C  0.02582831  0.85063878  0.80088968    -0.12900
N245        N  0.07914866  0.81939717  0.67283218     0.64300
H246        H  0.11515981  0.75285065  0.73746688     0.12100
N247        N  0.03774077  0.81177868  0.88398479     0.60900
H248        H  0.00095733  0.87798091  0.81876928     0.08300
O249        O  0.04976712  0.99580949  0.59290732    -0.40500
O250        O  0.06410152  0.03760061  0.66293259    -0.39700
O251        O  0.90132289  0.86583144  0.78397611    -0.39700
O252        O  0.90993034  0.81686185  0.71782145    -0.37400
O253        O  0.06491436  0.83718819  0.91431669    -0.38300
O254        O  0.99548686  0.79455299  0.89886448    -0.34500
O255        O  0.12138180  0.83656393  0.65774824    -0.35900
O256        O  0.05231706  0.79315634  0.64291372    -0.40200
C257        C  0.77780142  0.04693615  0.39551996    -0.13900
C258        C  0.77536044  0.99384884  0.39870072     0.16500
C259        C  0.80286348  0.96899439  0.43700931     0.02800
C260        C  0.82957661  0.99726206  0.47320941    -0.12400
C261        C  0.82950650  0.05070141  0.47248964    -0.03400
C262        C  0.80516116  0.07544569  0.43157250     0.02100
C263        C  0.74628117  0.96480403  0.36009388     0.08900
N264        N  0.80160376  0.91505151  0.44142694     0.65300
H265        H  0.84837725  0.97697024  0.50355791     0.18200
N266        N  0.80783901  0.12918678  0.42585925     0.75700
H267        H  0.75852975  0.06625368  0.36482188     0.09700
C268        C  0.69302035  0.96945145  0.35551135     0.03400
C269        C  0.66751153  0.94625264  0.31482642    -0.05300
C270        C  0.69438708  0.91803883  0.27843230    -0.23700
C271        C  0.74734049  0.91038537  0.28535536     0.12600
C272        C  0.77270485  0.93395369  0.32579379    -0.12900
N273        N  0.66441715  0.99784814  0.39180444     0.64300
H274        H  0.62699178  0.95235769  0.31047543     0.12100
N275        N  0.77618151  0.87950740  0.25122823     0.60900
H276        H  0.81351870  0.92949205  0.32943997     0.08300
O277        O  0.76914335  0.15590086  0.43514406    -0.40500
O278        O  0.84485776  0.14840889  0.40214306    -0.39700
O279        O  0.84024282  0.88947210  0.42914932    -0.39700
O280        O  0.76610064  0.89421004  0.46603342    -0.37400
O281        O  0.80140056  0.90009905  0.21606401    -0.38300
O282        O  0.78505447  0.83398174  0.26272474    -0.34500
O283        O  0.64501214  0.03966319  0.37916262    -0.35900
O284        O  0.65064428  0.97694045  0.43261428    -0.40200
C285        C  0.72358256  0.94453316  0.89490974    -0.13900
C286        C  0.73519219  0.99622050  0.89979313     0.16500
C287        C  0.71753349  0.02300668  0.94236619     0.02800
C288        C  0.68975428  0.99785207  0.97986260    -0.12400
C289        C  0.67957316  0.94549678  0.97653950    -0.03400
C290        C  0.69592532  0.91900945  0.93272355     0.02100
C291        C  0.76267026  0.02261198  0.85852167     0.08900
N292        N  0.72970976  0.07534822  0.94930519     0.65300
H293        H  0.67811534  0.01935119  0.01290985     0.18200
N294        N  0.68523820  0.86633860  0.92602164     0.75700
H295        H  0.73599067  0.92396857  0.86153989     0.09700
C296        C  0.81525617  0.01586514  0.85064996     0.03400
C297        C  0.83939917  0.03984296  0.80967675    -0.05300
C298        C  0.81145617  0.06946225  0.77523222    -0.23700
C299        C  0.75871173  0.07673285  0.78388065     0.12600
C300        C  0.73512394  0.05392491  0.82566977    -0.12900
N301        N  0.84426144  0.98355918  0.88307897     0.64300
H302        H  0.87948704  0.03289045  0.80320090     0.12100
N303        N  0.72810906  0.10591431  0.74984798     0.60900
H304        H  0.69467671  0.05928208  0.83153554     0.08300
O305        O  0.64510583  0.85302597  0.90317160    -0.40500
O306        O  0.71983911  0.83416251  0.93386925    -0.39700
O307        O  0.69524538  0.10825559  0.94457988    -0.39700
O308        O  0.77134576  0.08739229  0.97008588    -0.37400
O309        O  0.71870290  0.15162749  0.76022258    -0.38300
O310        O  0.70190272  0.08353842  0.71640196    -0.34500
O311        O  0.85098971  0.93784507  0.87074789    -0.35900
O312        O  0.87037758  0.00260405  0.91856042    -0.40200
C313        C  0.45397601  0.60452742  0.28201465    -0.13900
C314        C  0.50620636  0.59931850  0.27179863     0.16500
C315        C  0.53271039  0.55789926  0.29239999     0.02800
C316        C  0.50648071  0.52121080  0.32021842    -0.12400
C317        C  0.45349229  0.52438254  0.32797883    -0.03400
C318        C  0.42755093  0.56776194  0.31012197     0.02100
C319        C  0.53297447  0.63882329  0.24194619     0.08900
N320        N  0.58584729  0.55096939  0.28302599     0.65300
H321        H  0.52768027  0.48875663  0.33364955     0.18200
N322        N  0.37467234  0.57537670  0.32026623     0.75700
H323        H  0.43366047  0.63738284  0.26822727     0.09700
C324        C  0.51877785  0.65018816  0.19155342     0.03400
C325        C  0.54188462  0.69074625  0.16612733    -0.05300
C326        C  0.57867543  0.72089041  0.19040865    -0.23700
C327        C  0.59445564  0.70806922  0.24004875     0.12600
C328        C  0.57161961  0.66729940  0.26527038    -0.12900
N329        N  0.48005071  0.62170128  0.16614076     0.64300
H330        H  0.52890412  0.70038987  0.12830536     0.12100
N331        N  0.63313569  0.73651255  0.26564318     0.60900
H332        H  0.58290843  0.65895244  0.30391119     0.08300
O333        O  0.34228315  0.56684603  0.28585739    -0.40500
O334        O  0.36166424  0.60013569  0.35917109    -0.39700
O335        O  0.61740478  0.55910940  0.31829681    -0.39700
O336        O  0.59979089  0.52652998  0.24424727    -0.37400
O337        O  0.67900398  0.72282150  0.26196199    -0.38300
O338        O  0.62073371  0.76808679  0.29946011    -0.34500
O339        O  0.43626348  0.64060082  0.16085534    -0.35900
O340        O  0.49235115  0.58350178  0.14006014    -0.40200
C341        C  0.47775000  0.07470901  0.19122497    -0.13900
C342        C  0.50591422  0.11000218  0.21942374     0.16500
C343        C  0.55928632  0.10462876  0.22234271     0.02800
C344        C  0.58322510  0.06306583  0.19926182    -0.12400
C345        C  0.55471183  0.02587217  0.17360962    -0.03400
C346        C  0.50144424  0.03292550  0.16851664     0.02100
C347        C  0.47847097  0.14956224  0.24881319     0.08900
N348        N  0.58962249  0.14055830  0.24954526     0.65300
H349        H  0.62392772  0.05862274  0.20379346     0.18200
N350        N  0.47021344  0.99674557  0.14272047     0.75700
H351        H  0.43677121  0.07824227  0.18882198     0.09700
C352        C  0.44723751  0.18560329  0.22475482     0.03400
C353        C  0.42247839  0.22259271  0.25372073    -0.05300
C354        C  0.42791527  0.22466471  0.30690391    -0.23700
C355        C  0.45634744  0.18631297  0.33124957     0.12600
C356        C  0.48153708  0.14948525  0.30208615    -0.12900
N357        N  0.44244855  0.18694010  0.17069811     0.64300
H358        H  0.40066021  0.25130326  0.23409239     0.12100
N359        N  0.46155793  0.18500103  0.38524134     0.60900
H360        H  0.50371429  0.12070586  0.32115408     0.08300
O361        O  0.45832497  0.00411635  0.09688422    -0.40500
O362        O  0.44553663  0.96476222  0.16841443    -0.39700
O363        O  0.60589060  0.12965061  0.29328316    -0.39700
O364        O  0.60853416  0.17778835  0.22618544    -0.37400
O365        O  0.42911922  0.16108552  0.41119894    -0.38300
O366        O  0.50337754  0.19746353  0.40535444    -0.34500
O367        O  0.40145239  0.17244310  0.15022015    -0.35900
O368        O  0.47391108  0.21241926  0.14503869    -0.40200
C369        C  0.92892843  0.69650567  0.02645172    -0.13900
C370        C  0.89153357  0.72056619  0.99746538     0.16500
C371        C  0.89430149  0.71865639  0.94413008     0.02800
C372        C  0.93549345  0.69453307  0.92053886    -0.12400
C373        C  0.97490682  0.67300432  0.94946615    -0.03400
C374        C  0.97048797  0.67300396  0.00318043     0.02100
C375        C  0.85120518  0.74916605  0.02396417     0.08900
N376        N  0.85606373  0.74191955  0.91346578     0.65300
H377        H  0.93788176  0.69514088  0.87951891     0.18200
N378        N  0.00874978  0.65126411  0.03499752     0.75700
H379        H  0.92677476  0.69754461  0.06750601     0.09700
C380        C  0.81330350  0.72381964  0.05163194     0.03400
C381        C  0.77607111  0.75160696  0.07716113    -0.05300
C382        C  0.77545367  0.80495993  0.07555770    -0.23700
C383        C  0.81540565  0.83039071  0.05017661     0.12600
C384        C  0.85264269  0.80231720  0.02428892    -0.12900
N385        N  0.81070716  0.66974169  0.05206471     0.64300
H386        H  0.74617131  0.73103242  0.09652860     0.12100
N387        N  0.81825012  0.88443187  0.04929758     0.60900
H388        H  0.88276119  0.82200715  0.00435523     0.08300
O389        O  0.04142936  0.67979796  0.05557877    -0.40500
O390        O  0.00297008  0.60670691  0.05130536    -0.39700
O391        O  0.86498047  0.78418475  0.89297142    -0.39700
O392        O  0.81825216  0.71611666  0.89893639    -0.37400
O393        O  0.84281820  0.90730814  0.08360992    -0.38300
O394        O  0.80487283  0.90814626  0.00992898    -0.34500
O395        O  0.82502766  0.64578223  0.09094570    -0.35900
O396        O  0.78592346  0.64693402  0.01786442    -0.40200
C397        C  0.33651326  0.75803431  0.93255113    -0.13900
C398        C  0.35724839  0.73803126  0.97731776     0.16500
C399        C  0.33918521  0.69143492  0.99600687     0.02800
C400        C  0.30044888  0.66575637  0.97006749    -0.12400
C401        C  0.27821236  0.68672081  0.92643935    -0.03400
C402        C  0.29666524  0.73314339  0.90744769     0.02100
C403        C  0.39803271  0.76624731  0.00366839     0.08900
N404        N  0.35868409  0.67058038  0.04210896     0.65300
H405        H  0.28558581  0.63087104  0.98586182     0.18200
N406        N  0.27482534  0.75579292  0.86325574     0.75700
H407        H  0.35038138  0.79378463  0.91790770     0.09700
C408        C  0.44616464  0.77124079  0.98121714     0.03400
C409        C  0.48432576  0.79815598  0.00621632    -0.05300
C410        C  0.47589887  0.82055894  0.05409733    -0.23700
C411        C  0.42683901  0.81720012  0.07575225     0.12600
C412        C  0.38837117  0.78989992  0.05048364    -0.12900
N413        N  0.45758834  0.74720355  0.93391778     0.64300
H414        H  0.52149996  0.79959652  0.98854046     0.12100
N415        N  0.41456286  0.84339212  0.12157791     0.60900
H416        H  0.35076810  0.78755372  0.06713850     0.08300
O417        O  0.24129652  0.78962706  0.86823880    -0.40500
O418        O  0.29614693  0.74977956  0.82075458    -0.39700
O419        O  0.33401479  0.67629579  0.08281445    -0.39700
O420        O  0.39439984  0.63872193  0.04037688    -0.37400
O421        O  0.39293717  0.88593162  0.11868823    -0.38300
O422        O  0.41304506  0.81926497  0.16286656    -0.34500
O423        O  0.46024191  0.77349411  0.89403212    -0.35900
O424        O  0.47493636  0.70265626  0.93379762    -0.40200
loop_ 
_geom_bond_atom_site_label_1 
_geom_bond_atom_site_label_2 
_geom_bond_distance 
_geom_bond_site_symmetry_2 
_ccdc_geom_bond_type 
O1           C16   1.273       .  A
O1           Al9   1.966       .  S
C2           O12   1.273       .  A
C2            O3   1.258       .  A
C2          C410   1.485       .  S
O3           Al5   1.867       .  S
O4            C6   1.269       .  A
O4           Al5   1.959       .  S
Al5          O13   1.954       .  S
Al5          O15   1.866       .  S
Al5          O14   1.761       .  S
C6           O19   1.258       .  A
C6          C289   1.490   1_554  S
O7           C17   1.273       .  A
O7           Al9   1.957       .  S
O8           C21   1.272       .  A
O8          Al18   1.956       .  S
Al9          O22   1.871       .  S
Al9          O19   1.876       .  S
Al9          O14   1.762       .  S
O10          C17   1.259       .  A
O10         Al18   1.880       .  S
O11          C20   1.258       .  A
O11         Al18   1.884       .  S
O12         Al18   1.971       .  S
O13          C20   1.270       .  A
O14         Al18   1.769       .  S
O15          C16   1.258       .  A
C16         C382   1.485       .  S
C17         C345   1.488   1_565  S
C20         C326   1.478       .  S
C21          O22   1.257       .  A
C21         C270   1.482       .  S
O23          C38   1.271       .  A
O23         Al31   1.964       .  S
C24          O34   1.270       .  A
C24          O25   1.260       .  A
C24         C233   1.489   1_545  S
O25         Al27   1.891       .  S
O26          C28   1.273       .  A
O26         Al27   1.964       .  S
Al27         O35   1.960       .  S
Al27         O37   1.876       .  S
Al27         O36   1.765       .  S
C28          O41   1.260       .  A
C28         C186   1.484   1_655  S
O29          C39   1.273       .  A
O29         Al31   1.972       .  S
O30          C43   1.271       .  A
O30         Al40   1.951       .  S
Al31         O44   1.878       .  S
Al31         O41   1.871       .  S
Al31         O36   1.770       .  S
O32          C39   1.258       .  A
O32         Al40   1.871       .  S
O33          C42   1.257       .  A
O33         Al40   1.874       .  S
O34         Al40   1.948       .  S
O35          C42   1.272       .  A
O36         Al40   1.761       .  S
O37          C38   1.259       .  A
C38         C214   1.491       .  S
C39         C261   1.491       .  S
C42         C298   1.483       .  S
C43          O44   1.259       .  A
C43         C149   1.476       .  S
O45          C60   1.272       .  A
O45         Al53   1.960       .  S
C46          O56   1.273       .  A
C46          O47   1.260       .  A
C46         C354   1.488       .  S
O47         Al49   1.873       .  S
O48          C50   1.272       .  A
O48         Al49   1.957       .  S
Al49         O57   1.968       .  S
Al49         O59   1.877       .  S
Al49         O58   1.764       .  S
C50          O63   1.260       .  A
C50          C93   1.477       .  S
O51          C61   1.272       .  A
O51         Al53   1.955       .  S
O52          C65   1.272       .  A
O52         Al62   1.957       .  S
Al53         O66   1.884       .  S
Al53         O63   1.888       .  S
Al53         O58   1.768       .  S
O54          C61   1.258       .  A
O54         Al62   1.873       .  S
O55          C64   1.256       .  A
O55         Al62   1.868       .  S
O56         Al62   1.970       .  S
O57          C64   1.271       .  A
O58         Al62   1.761       .  S
O59          C60   1.261       .  A
C60         C317   1.489       .  S
C61         C177   1.487       .  S
C64         C158   1.490       .  S
C65          O66   1.259       .  A
C65         C121   1.484       .  S
O67          C82   1.274       .  A
O67         Al75   1.958       .  S
C68          O78   1.270       .  A
C68          O69   1.259       .  A
C68         C401   1.468       .  S
O69         Al71   1.884       .  S
O70          C72   1.270       .  A
O70         Al71   1.961       .  S
Al71         O79   1.971       .  S
Al71         O81   1.871       .  S
Al71         O80   1.773       .  S
C72          O85   1.258       .  A
C72         C242   1.485       .  S
O73          C83   1.274       .  A
O73         Al75   1.972       .  S
O74          C87   1.270       .  A
O74         Al84   1.950       .  S
Al75         O88   1.882       .  S
Al75         O85   1.877       .  S
Al75         O80   1.765       .  S
O76          C83   1.258       .  A
O76         Al84   1.868       .  S
O77          C86   1.261       .  A
O77         Al84   1.881       .  S
O78         Al84   1.947       .  S
O79          C86   1.272       .  A
O80         Al84   1.761       .  S
O81          C82   1.259       .  A
C82         C373   1.485   1_455  S
C83         C130   1.491       .  S
C86         C102   1.491   1_556  S
C87          O88   1.257       .  A
C87         C205   1.484       .  S
C89          C90   1.403       .  A
C89          C94   1.402       .  A
C89          H99   1.083       .  S
C90          C95   1.483       .  S
C90          C91   1.408       .  A
C91          C92   1.402       .  A
C91          N96   1.428       .  S
C92          C93   1.405       .  A
C92          H97   1.084       .  S
C93          C94   1.411       .  A
C94          N98   1.429       .  S
C95         C100   1.403       .  A
C95         C104   1.405       .  A
N96         O111   1.262       .  A
N96         O112   1.261       .  A
N98         O109   1.262       .  A
N98         O110   1.262       .  A
C100        C101   1.396       .  A
C100        N105   1.429       .  S
C101        C102   1.409       .  A
C101        H106   1.082   1_554  S
C102        C103   1.414       .  A
C103        C104   1.408       .  A
C103        N107   1.427       .  S
C104        H108   1.082       .  S
N105        O115   1.262       .  A
N105        O116   1.262       .  A
N107        O113   1.262       .  A
N107        O114   1.262       .  A
C117        C118   1.404       .  A
C117        C122   1.402       .  A
C117        H127   1.081       .  S
C118        C123   1.490       .  S
C118        C119   1.412       .  A
C119        C120   1.402       .  A
C119        N124   1.429       .  S
C120        C121   1.404       .  A
C120        H125   1.082       .  S
C121        C122   1.415       .  A
C122        N126   1.430       .  S
C123        C128   1.408       .  A
C123        C132   1.407       .  A
N124        O139   1.262       .  A
N124        O140   1.262       .  A
N126        O137   1.262       .  A
N126        O138   1.262       .  A
C128        C129   1.398       .  A
C128        N133   1.429       .  S
C129        C130   1.409       .  A
C129        H134   1.082       .  S
C130        C131   1.413       .  A
C131        C132   1.407       .  A
C131        N135   1.428       .  S
C132        H136   1.081       .  S
N133        O143   1.262       .  A
N133        O144   1.262       .  A
N135        O141   1.262       .  A
N135        O142   1.262       .  A
C145        C146   1.402       .  A
C145        C150   1.399       .  A
C145        H155   1.082       .  S
C146        C151   1.481       .  S
C146        C147   1.409       .  A
C147        C148   1.401       .  A
C147        N152   1.428       .  S
C148        C149   1.404       .  A
C148        H153   1.082       .  S
C149        C150   1.413       .  A
C150        N154   1.430       .  S
C151        C156   1.404       .  A
C151        C160   1.405       .  A
N152        O167   1.262       .  A
N152        O168   1.262       .  A
N154        O165   1.262       .  A
N154        O166   1.262       .  A
C156        C157   1.395       .  A
C156        N161   1.430       .  S
C157        C158   1.411       .  A
C157        H162   1.082       .  S
C158        C159   1.414       .  A
C159        C160   1.405       .  A
C159        N163   1.428       .  S
C160        H164   1.082       .  S
N161        O171   1.262       .  A
N161        O172   1.262       .  A
N163        O169   1.262       .  A
N163        O170   1.262       .  A
C173        C174   1.398       .  A
C173        C178   1.396       .  A
C173        H183   1.082       .  S
C174        C179   1.481       .  S
C174        C175   1.409       .  A
C175        C176   1.404       .  A
C175        N180   1.429       .  S
C176        C177   1.408       .  A
C176        H181   1.082       .  S
C177        C178   1.419       .  A
C178        N182   1.430       .  S
C179        C184   1.406       .  A
C179        C188   1.404       .  A
N180        O195   1.262       .  A
N180        O196   1.262       .  A
N182        O193   1.262       .  A
N182        O194   1.262       .  A
C184        C185   1.396       .  A
C184        N189   1.429       .  S
C185        C186   1.407       .  A
C185        H190   1.083       .  S
C186        C187   1.415       .  A
C187        C188   1.405       .  A
C187        N191   1.429       .  S
C188        H192   1.083       .  S
N189        O199   1.262       .  A
N189        O200   1.262       .  A
N191        O197   1.262       .  A
N191        O198   1.261       .  A
C201        C202   1.400   1_655  A
C201        C206   1.400       .  A
C201        H211   1.084       .  S
C202        C207   1.480   1_455  S
C202        C203   1.408       .  A
C203        C204   1.402       .  A
C203        N208   1.428       .  S
C204        C205   1.407       .  A
C204        H209   1.083       .  S
C205        C206   1.416   1_455  A
C206        N210   1.429       .  S
C207        C212   1.403       .  A
C207        C216   1.404       .  A
N208        O223   1.262       .  A
N208        O224   1.262       .  A
N210        O221   1.262       .  A
N210        O222   1.262       .  A
C212        C213   1.395       .  A
C212        N217   1.429       .  S
C213        C214   1.410       .  A
C213        H218   1.082       .  S
C214        C215   1.416       .  A
C215        C216   1.408       .  A
C215        N219   1.429       .  S
C216        H220   1.082       .  S
N217        O227   1.262       .  A
N217        O228   1.262   1_655  A
N219        O225   1.262       .  A
N219        O226   1.262       .  A
C229        C230   1.402       .  A
C229        C234   1.403       .  A
C229        H239   1.082       .  S
C230        C235   1.489       .  S
C230        C231   1.411   1_455  A
C231        C232   1.402       .  A
C231        N236   1.429       .  S
C232        C233   1.405       .  A
C232        H237   1.082       .  S
C233        C234   1.416   1_655  A
C234        N238   1.429   1_565  S
C235        C240   1.409       .  A
C235        C244   1.406       .  A
N236        O251   1.262       .  A
N236        O252   1.262       .  A
N238        O249   1.262   1_545  A
N238        O250   1.262       .  A
C240        C241   1.400       .  A
C240        N245   1.429       .  S
C241        C242   1.407       .  A
C241        H246   1.082       .  S
C242        C243   1.412       .  A
C243        C244   1.404       .  A
C243        N247   1.428       .  S
C244        H248   1.082       .  S
N245        O255   1.262       .  A
N245        O256   1.262       .  A
N247        O253   1.262       .  A
N247        O254   1.261   1_455  A
C257        C258   1.405   1_545  A
C257        C262   1.406       .  A
C257        H267   1.082       .  S
C258        C263   1.482       .  S
C258        C259   1.404       .  A
C259        C260   1.397       .  A
C259        N264   1.429       .  S
C260        C261   1.411   1_565  A
C260        H265   1.082       .  S
C261        C262   1.414       .  A
C262        N266   1.428       .  S
C263        C268   1.409       .  A
C263        C272   1.400       .  A
N264        O279   1.262       .  A
N264        O280   1.262       .  A
N266        O277   1.262       .  A
N266        O278   1.262       .  A
C268        C269   1.402       .  A
C268        N273   1.428       .  S
C269        C270   1.404       .  A
C269        H274   1.082       .  S
C270        C271   1.417       .  A
C271        C272   1.400       .  A
C271        N275   1.430       .  S
C272        H276   1.082       .  S
N273        O283   1.262   1_565  A
N273        O284   1.262       .  A
N275        O281   1.262       .  A
N275        O282   1.262       .  A
C285        C286   1.403       .  A
C285        C290   1.405       .  A
C285        H295   1.083       .  S
C286        C291   1.480   1_565  S
C286        C287   1.404   1_565  A
C287        C288   1.396   1_545  A
C287        N292   1.429       .  S
C288        C289   1.410       .  A
C288        H293   1.083   1_566  S
C289        C290   1.415       .  A
C290        N294   1.428       .  S
C291        C296   1.408       .  A
C291        C300   1.399       .  A
N292        O307   1.262       .  A
N292        O308   1.262       .  A
N294        O305   1.262       .  A
N294        O306   1.262       .  A
C296        C297   1.403       .  A
C296        N301   1.428   1_545  S
C297        C298   1.405       .  A
C297        H302   1.082       .  S
C298        C299   1.417       .  A
C299        C300   1.400       .  A
C299        N303   1.430       .  S
C300        H304   1.083       .  S
N301        O311   1.262       .  A
N301        O312   1.261   1_565  A
N303        O309   1.262       .  A
N303        O310   1.262       .  A
C313        C314   1.405       .  A
C313        C318   1.404       .  A
C313        H323   1.082       .  S
C314        C319   1.483       .  S
C314        C315   1.406       .  A
C315        C316   1.396       .  A
C315        N320   1.429       .  S
C316        C317   1.409       .  A
C316        H321   1.082       .  S
C317        C318   1.414       .  A
C318        N322   1.429       .  S
C319        C324   1.411       .  A
C319        C328   1.402       .  A
N320        O335   1.262       .  A
N320        O336   1.262       .  A
N322        O333   1.262       .  A
N322        O334   1.262       .  A
C324        C325   1.401       .  A
C324        N329   1.429       .  S
C325        C326   1.403       .  A
C325        H330   1.083       .  S
C326        C327   1.413       .  A
C327        C328   1.400       .  A
C327        N331   1.429       .  S
C328        H332   1.083       .  S
N329        O339   1.262       .  A
N329        O340   1.262       .  A
N331        O337   1.262       .  A
N331        O338   1.262       .  A
C341        C342   1.400       .  A
C341        C346   1.401       .  A
C341        H351   1.082       .  S
C342        C347   1.486       .  S
C342        C343   1.411       .  A
C343        C344   1.403       .  A
C343        N348   1.428       .  S
C344        C345   1.405       .  A
C344        H349   1.082       .  S
C345        C346   1.417       .  A
C346        N350   1.428   1_545  S
C347        C352   1.408       .  A
C347        C356   1.405       .  A
N348        O363   1.262       .  A
N348        O364   1.262       .  A
N350        O361   1.262   1_565  A
N350        O362   1.261       .  A
C352        C353   1.399       .  A
C352        N357   1.429       .  S
C353        C354   1.408       .  A
C353        H358   1.083       .  S
C354        C355   1.413       .  A
C355        C356   1.405       .  A
C355        N359   1.429       .  S
C356        H360   1.082       .  S
N357        O367   1.262       .  A
N357        O368   1.262       .  A
N359        O365   1.262       .  A
N359        O366   1.261       .  A
C369        C370   1.397   1_554  A
C369        C374   1.398       .  A
C369        H379   1.083       .  S
C370        C375   1.477   1_556  S
C370        C371   1.407       .  A
C371        C372   1.401       .  A
C371        N376   1.428       .  S
C372        C373   1.406       .  A
C372        H377   1.082       .  S
C373        C374   1.419   1_556  A
C374        N378   1.429   1_655  S
C375        C380   1.403       .  A
C375        C384   1.403       .  A
N376        O391   1.262       .  A
N376        O392   1.262       .  A
N378        O389   1.262       .  A
N378        O390   1.262       .  A
C380        C381   1.396       .  A
C380        N385   1.429       .  S
C381        C382   1.409       .  A
C381        H386   1.082       .  S
C382        C383   1.414       .  A
C383        C384   1.404       .  A
C383        N387   1.428       .  S
C384        H388   1.082       .  S
N385        O395   1.262       .  A
N385        O396   1.262       .  A
N387        O393   1.262       .  A
N387        O394   1.262       .  A
C397        C398   1.402       .  A
C397        C402   1.399       .  A
C397        H407   1.083       .  S
C398        C403   1.475   1_556  S
C398        C399   1.407       .  A
C399        C400   1.398       .  A
C399        N404   1.429   1_556  S
C400        C401   1.403       .  A
C400        H405   1.083       .  S
C401        C402   1.410       .  A
C402        N406   1.429       .  S
C403        C408   1.402   1_554  A
C403        C412   1.404       .  A
N404        O419   1.262       .  A
N404        O420   1.261       .  A
N406        O417   1.262       .  A
N406        O418   1.262       .  A
C408        C409   1.391   1_556  A
C408        N413   1.429       .  S
C409        C410   1.409       .  A
C409        H414   1.082   1_554  S
C410        C411   1.412       .  A
C411        C412   1.406       .  A
C411        N415   1.427       .  S
C412        H416   1.082       .  S
N413        O423   1.262       .  A
N413        O424   1.262       .  A
N415        O421   1.262       .  A
N415        O422   1.262       .  A
