geometry optimzed in LAMMPS
_audit_creation_date              2020-11-30 
_audit_creation_method            'lammps2cif' 
_symmetry_space_group_name_H-M    'P1' 
_symmetry_Int_Tables_number       1 
_symmetry_cell_setting            triclinic 
loop_ 
_symmetry_equiv_pos_as_xyz 
  x,y,z 
_cell_length_a                    37.63783279 
_cell_length_b                    37.647555692248254 
_cell_length_c                    37.559348857999815 
_cell_angle_alpha                 90.025547766255 
_cell_angle_beta                  89.84501559489165 
_cell_angle_gamma                 89.81946348202136 
loop_ 
_atom_site_label 
_atom_site_type_symbol 
_atom_site_fract_x 
_atom_site_fract_y 
_atom_site_fract_z 
_atom_site_charge 
O1          O  0.20761856  0.57361814  0.47600690    -0.56800
C2          C  0.26964527  0.57946737  0.56762302     0.75800
O3          O  0.27380810  0.67139870  0.47576269    -0.57900
C4          C  0.22088902  0.57692858  0.44521266     0.75800
C5          C  0.18376265  0.66121463  0.52652040     0.78200
Cd6        Cd  0.24525143  0.61902728  0.50534008     1.37500
O7          O  0.27220912  0.56681239  0.53649909    -0.56800
O8          O  0.18100005  0.63158926  0.51093730    -0.55600
C9          C  0.30541567  0.66060477  0.48028073     0.78200
O10         O  0.21516169  0.67212000  0.53151151    -0.58000
O11         O  0.25486523  0.60956440  0.56996107    -0.56400
O12         O  0.24646626  0.59848412  0.44248016    -0.56400
O13         O  0.30876663  0.63129591  0.49636323    -0.55600
O14         O  0.75389745  0.88016332  0.43558422    -0.56800
C15         C  0.72463330  0.91349343  0.56124366     0.75800
O16         O  0.71200846  0.81797199  0.47652808    -0.57900
C17         C  0.76754649  0.91074732  0.43786837     0.75800
C18         C  0.80755489  0.83286942  0.52326125     0.78200
Cd19       Cd  0.74469398  0.87104721  0.50001166     1.37500
O20         O  0.71634174  0.92263817  0.52991338    -0.56800
O21         O  0.80885551  0.85964116  0.50301373    -0.55600
C22         C  0.68131836  0.83142282  0.48023655     0.78200
O23         O  0.77670790  0.82225242  0.53160048    -0.58000
O24         O  0.74287274  0.88537820  0.56403257    -0.56400
O25         O  0.76993676  0.92347791  0.46896892    -0.56400
O26         O  0.68029824  0.86217794  0.49369060    -0.55600
O27         O  0.99244042  0.69091199  0.63776523    -0.56800
C28         C  0.02292398  0.81704453  0.66509514     0.75800
O29         O  0.02789584  0.72560827  0.57512736    -0.57900
C30         C  0.97740891  0.69318084  0.66780222     0.75800
C31         C  0.93494545  0.77581035  0.58837436     0.78200
Cd32       Cd  0.99841589  0.75472677  0.62688422     1.37500
O33         O  0.00499965  0.81927875  0.63674894    -0.56800
O34         O  0.96581392  0.78252169  0.57667011    -0.55600
C35         C  0.05930025  0.72977551  0.58636103     0.78200
O36         O  0.93350152  0.75888524  0.61741095    -0.58000
O37         O  0.02843084  0.78594728  0.67672419    -0.56400
O38         O  0.97272079  0.72432553  0.67980552    -0.56400
O39         O  0.06245779  0.74691770  0.61511012    -0.55600
O40         O  0.43254884  0.76309899  0.88083203    -0.56800
C41         C  0.55902920  0.73231462  0.91388909     0.75800
O42         O  0.49208020  0.68847843  0.86323903    -0.57900
C43         C  0.43458013  0.77708705  0.91138136     0.75800
C44         C  0.52269008  0.81552918  0.83363136     0.78200
Cd45       Cd  0.49729223  0.75335751  0.87235335     1.37500
O46         O  0.52775541  0.72536153  0.92428042    -0.56800
O47         O  0.50429375  0.81787609  0.86176506    -0.55600
C48         C  0.47599428  0.68939847  0.83375250     0.78200
O49         O  0.52792216  0.78431657  0.82204540    -0.58000
O50         O  0.56147127  0.74965073  0.88517984    -0.56400
O51         O  0.46548139  0.77927839  0.92443459    -0.56400
O52         O  0.47068335  0.72009914  0.82094709    -0.55600
O53         O  0.63319817  0.01767334  0.81457088    -0.56800
C54         C  0.66816454  0.97966851  0.68830601     0.75800
O55         O  0.57693554  0.97219601  0.77667873    -0.57900
C56         C  0.66526491  0.02758375  0.81491002     0.75800
C57         C  0.59350467  0.06611441  0.72350383     0.78200
Cd58       Cd  0.62943283  0.00336691  0.75084872     1.37500
O59         O  0.68180341  0.97717617  0.71905017    -0.56800
O60         O  0.57979688  0.03550796  0.72122180    -0.55600
C61         C  0.58982399  0.94115409  0.77441000     0.78200
O62         O  0.62298668  0.06780213  0.73949865    -0.58000
O63         O  0.63769381  0.99378640  0.68688042    -0.56400
O64         O  0.68162025  0.02564912  0.78540680    -0.56400
O65         O  0.62035700  0.93883562  0.76044325    -0.55600
O66         O  0.78050878  0.68408411  0.03101376    -0.56800
C67         C  0.68526933  0.67190613  0.97817812     0.75800
O68         O  0.77336260  0.58209763  0.96839151    -0.57900
C69         C  0.81167847  0.67264430  0.02527576     0.75800
C70         C  0.72898374  0.59434389  0.06350794     0.78200
Cd71       Cd  0.74924949  0.63441068  0.00076701     1.37500
O72         O  0.71581193  0.68561563  0.97500855    -0.56800
O73         O  0.74019314  0.62593011  0.06491296    -0.55600
C74         C  0.77231401  0.59619894  0.93777945     0.78200
O75         O  0.72766981  0.58054612  0.03276052    -0.58000
O76         O  0.68433668  0.64154528  0.99251747    -0.56400
O77         O  0.81401119  0.64465332  0.00678739    -0.56400
O78         O  0.75998374  0.62746161  0.93639972    -0.55600
O79         O  0.92816567  0.53697438  0.72652966    -0.56800
C80         C  0.91297416  0.44260318  0.77585080     0.75800
O81         O  0.82639419  0.53805637  0.78201186    -0.57900
C82         C  0.91676179  0.56810712  0.73256337     0.75800
C83         C  0.83863640  0.48417184  0.68884295     0.78200
Cd84       Cd  0.87608611  0.50612805  0.75262478     1.37500
O85         O  0.92792787  0.47269147  0.77759487    -0.56800
O86         O  0.86935305  0.49758507  0.68778299    -0.55600
C87         C  0.83539779  0.53022131  0.81352460     0.78200
O88         O  0.82445456  0.48195576  0.71936126    -0.58000
O89         O  0.88183500  0.44246449  0.76335467    -0.56400
O90         O  0.88762029  0.57033483  0.74920173    -0.56400
O91         O  0.86228119  0.51022135  0.81665882    -0.55600
O92         O  0.60801500  0.56973303  0.25126529    -0.56800
C93         C  0.58226356  0.44686242  0.22510092     0.75800
O94         O  0.67308842  0.54150958  0.22065872    -0.57900
C95         C  0.58324077  0.56645795  0.27383666     0.75800
C96         C  0.66723800  0.48279433  0.30894783     0.78200
Cd97       Cd  0.62502116  0.50634076  0.24893736     1.37500
O98         O  0.57321721  0.47857670  0.21829051    -0.56800
O99         O  0.67534952  0.47406648  0.27740170    -0.55600
C100        C  0.66776317  0.53045949  0.18930186     0.78200
O101        O  0.64064177  0.50306133  0.31231512    -0.58000
O102        O  0.60993470  0.44310970  0.24374176    -0.56400
O103        O  0.57645573  0.53501327  0.28362044    -0.56400
O104        O  0.64370873  0.50735659  0.18583031    -0.55600
O105        O  0.50306636  0.32441962  0.13222584    -0.56800
C106        C  0.47645564  0.19615178  0.16090110     0.75800
O107        O  0.43291776  0.26000835  0.11134476    -0.57900
C108        C  0.51788090  0.32231340  0.16231493     0.75800
C109        C  0.56158212  0.23878492  0.08447376     0.78200
Cd110      Cd  0.49742802  0.25961454  0.12227954     1.37500
O111        O  0.46995333  0.22701349  0.17282075    -0.56800
O112        O  0.56148746  0.25057133  0.11597727    -0.55600
C113        C  0.43353575  0.27983023  0.08420797     0.78200
O114        O  0.53165140  0.23789824  0.06908159    -0.58000
O115        O  0.49358735  0.19475664  0.13189612    -0.56400
O116        O  0.52161949  0.29128554  0.17476193    -0.56400
O117        O  0.46407034  0.28898983  0.07333874    -0.55600
O118        O  0.42850496  0.97145263  0.27416228    -0.56800
C119        C  0.41528226  0.06880250  0.22256191     0.75800
O120        O  0.32391381  0.98099100  0.21718209    -0.57900
C121        C  0.41534765  0.94089152  0.26941161     0.75800
C122        C  0.34150617  0.02754786  0.31118277     0.78200
Cd123      Cd  0.37797887  0.00525418  0.24676668     1.37500
O124        O  0.42810945  0.03799413  0.21765605    -0.56800
O125        O  0.37376268  0.01806441  0.31088804    -0.55600
C126        C  0.33563662  0.98408832  0.18567745     0.78200
O127        O  0.32559496  0.02624526  0.28152912    -0.58000
O128        O  0.38593502  0.07005231  0.23898517    -0.56400
O129        O  0.38628862  0.94014783  0.25267755    -0.56400
O130        O  0.36618510  0.99770172  0.18256065    -0.55600
O131        O  0.48641441  0.81586769  0.36699684    -0.56800
C132        C  0.51666336  0.69032812  0.33793551     0.75800
O133        O  0.55515483  0.74980336  0.39528136    -0.57900
C134        C  0.47113737  0.81381677  0.33713156     0.75800
C135        C  0.42896137  0.72816272  0.41797402     0.78200
Cd136      Cd  0.49150562  0.75128066  0.37846089     1.37500
O137        O  0.52337257  0.72185975  0.32831331    -0.56800
O138        O  0.46008139  0.72364765  0.42990644    -0.55600
C139        C  0.55295731  0.77183573  0.42058933     0.78200
O140        O  0.42676917  0.74430510  0.38856339    -0.58000
O141        O  0.49685119  0.68717286  0.36500574    -0.56400
O142        O  0.46588444  0.78266259  0.32553250    -0.56400
O143        O  0.52205696  0.78337257  0.42750212    -0.55600
O144        O  0.71357759  0.08209489  0.97438294    -0.56800
C145        C  0.77068653  0.08656491  0.06599770     0.75800
O146        O  0.77888759  0.18154644  0.97825373    -0.57900
C147        C  0.72465099  0.08905562  0.94327968     0.75800
C148        C  0.68841887  0.17231413  0.02741489     0.78200
Cd149      Cd  0.74859400  0.12900272  0.00496712     1.37500
O150        O  0.75078380  0.11351749  0.06872493    -0.56800
O151        O  0.68573386  0.14916689  0.00317883    -0.55600
C152        C  0.81016561  0.17019468  0.98343646     0.78200
O153        O  0.71915530  0.17648952  0.04034702    -0.58000
O154        O  0.77897202  0.07757395  0.03455214    -0.56400
O155        O  0.74788692  0.11313750  0.94098417    -0.56400
O156        O  0.81265359  0.14086228  0.99955440    -0.55600
O157        O  0.00138158  0.18705387  0.86204874    -0.56800
C158        C  0.97476522  0.31385465  0.83319466     0.75800
O159        O  0.96524128  0.22670941  0.92710861    -0.57900
C160        C  0.01798001  0.18961137  0.83286911     0.75800
C161        C  0.05620054  0.27162752  0.91438655     0.78200
Cd162      Cd  0.99501932  0.25121239  0.87330964     1.37500
O163        O  0.96275295  0.28334571  0.82581864    -0.56800
O164        O  0.05868818  0.25163376  0.88743731    -0.55600
C165        C  0.93381453  0.23126808  0.91605396     0.78200
O166        O  0.02510311  0.28139512  0.92300046    -0.58000
O167        O  0.99749419  0.31513684  0.85786651    -0.56400
O168        O  0.02252913  0.22084265  0.82124622    -0.56400
O169        O  0.93078381  0.24565898  0.88580701    -0.55600
O170        O  0.27770627  0.82963710  0.96960446    -0.56800
C171        C  0.18496437  0.84150907  0.02134326     0.75800
O172        O  0.27502751  0.93250003  0.03032311    -0.57900
C173        C  0.30907623  0.84009360  0.97558202     0.75800
C174        C  0.22543259  0.92046418  0.93671720     0.78200
Cd175      Cd  0.24751532  0.88081199  0.99920466     1.37500
O176        O  0.18321511  0.87245790  0.00842976    -0.56800
O177        O  0.24264126  0.89166423  0.93462348    -0.55600
C178        C  0.27050305  0.92066150  0.06158201     0.78200
O179        O  0.21932643  0.93180278  0.96787790    -0.58000
O180        O  0.21580103  0.82809596  0.02343954    -0.56400
O181        O  0.31179469  0.86840396  0.99353168    -0.56400
O182        O  0.25493129  0.89102388  0.06384104    -0.55600
O183        O  0.07601296  0.97312175  0.72081386    -0.56800
C184        C  0.08568319  0.06656004  0.76938871     0.75800
O185        O  0.17842239  0.97809685  0.77840834    -0.57900
C186        C  0.08873405  0.94224966  0.72528520     0.75800
C187        C  0.16756982  0.02774725  0.68548905     0.78200
Cd188      Cd  0.12713363  0.00528011  0.74713878     1.37500
O189        O  0.07598513  0.03514376  0.77639861    -0.56800
O190        O  0.13876624  0.01073738  0.68287330    -0.55600
C191        C  0.16653277  0.98365981  0.80948482     0.78200
O192        O  0.17830750  0.03375274  0.71684601    -0.58000
O193        O  0.11371019  0.06950565  0.75099569    -0.56400
O194        O  0.11854843  0.94067654  0.74061247    -0.56400
O195        O  0.13757062  0.00063155  0.81148442    -0.55600
O196        O  0.82405615  0.96888308  0.28346815    -0.56800
C197        C  0.83438471  0.02338671  0.19138538     0.75800
O198        O  0.92195467  0.03281730  0.28581678    -0.57900
C199        C  0.83079471  0.97871591  0.31498868     0.75800
C200        C  0.91746869  0.94272124  0.23473197     0.78200
Cd201      Cd  0.87303063  0.00228617  0.25483563     1.37500
O202        O  0.82244965  0.02934443  0.22238627    -0.56800
O203        O  0.88930919  0.93898430  0.25274536    -0.55600
C204        C  0.91126173  0.06399498  0.27902347     0.78200
O205        O  0.92611574  0.97432211  0.22720787    -0.58000
O206        O  0.86339510  0.00646424  0.18976279    -0.56400
O207        O  0.85590652  0.00066304  0.31839938    -0.56400
O208        O  0.88358805  0.06648189  0.26016304    -0.55600
O209        O  0.02943259  0.78710735  0.07798021    -0.56800
C210        C  0.93813473  0.73213260  0.09018197     0.75800
O211        O  0.00210087  0.69350176  0.14802766    -0.57900
C212        C  0.06077714  0.77708894  0.08513998     0.75800
C213        C  0.98085290  0.81879346  0.16986596     0.78200
Cd214      Cd  0.00081802  0.75611414  0.12906802     1.37500
O215        O  0.93625060  0.74717693  0.12024591    -0.56800
O216        O  0.99603599  0.82055177  0.13990588    -0.55600
C217        C  0.02690225  0.69624504  0.17050476     0.78200
O218        O  0.97571791  0.78779686  0.18184143    -0.58000
O219        O  0.96913603  0.72871073  0.07735714    -0.56400
O220        O  0.06386234  0.75599337  0.11112054    -0.56400
O221        O  0.03904108  0.72722221  0.17515285    -0.55600
O222        O  0.17318107  0.47876805  0.21658802    -0.56800
C223        C  0.15901147  0.51878097  0.31708018     0.75800
O224        O  0.07263255  0.53966258  0.23044687    -0.57900
C225        C  0.15772131  0.47977110  0.18667012     0.75800
C226        C  0.08281263  0.43828689  0.26946893     0.78200
Cd227      Cd  0.12225072  0.50197937  0.25136553     1.37500
O228        O  0.12609096  0.51216484  0.31600781    -0.56800
O229        O  0.11481923  0.43755655  0.25924459    -0.55600
C230        C  0.08937050  0.56881796  0.23073630     0.78200
O231        O  0.06836700  0.46872229  0.27085249    -0.58000
O232        O  0.17545006  0.51688285  0.28764018    -0.56400
O233        O  0.12655351  0.49238985  0.18657781    -0.56400
O234        O  0.12118438  0.56728051  0.24145076    -0.55600
O235        O  0.32966175  0.46234678  0.78003931    -0.56800
C236        C  0.33787977  0.51652160  0.69077366     0.75800
O237        O  0.42667320  0.52844952  0.78598576    -0.57900
C238        C  0.33608830  0.47137262  0.81183576     0.75800
C239        C  0.42659247  0.43698812  0.72920077     0.78200
Cd240      Cd  0.38020467  0.49530780  0.75221790     1.37500
O241        O  0.32928641  0.52499843  0.72226209    -0.56800
O242        O  0.39862243  0.43223799  0.74729722    -0.55600
C243        C  0.41774715  0.55908247  0.77520557     0.78200
O244        O  0.43450841  0.46906147  0.72299489    -0.58000
O245        O  0.36523805  0.49715912  0.68775829    -0.56400
O246        O  0.36245942  0.49166676  0.81605263    -0.56400
O247        O  0.39242565  0.55997894  0.75316693    -0.55600
O248        O  0.21002654  0.42499233  0.02901181    -0.56800
C249        C  0.26462319  0.41303229  0.93543757     0.75800
O250        O  0.27425012  0.32724887  0.03047518    -0.57900
C251        C  0.21814237  0.41535126  0.06027525     0.75800
C252        C  0.18036212  0.33369389  0.97851106     0.78200
Cd253      Cd  0.24158991  0.37525703  0.99882341     1.37500
O254        O  0.25484430  0.38092476  0.93475640    -0.56800
O255        O  0.17788321  0.36405644  0.99259469    -0.55600
C256        C  0.30494271  0.33933451  0.02379632     0.78200
O257        O  0.21155056  0.32155230  0.97461700    -0.58000
O258        O  0.26235361  0.42847329  0.96535214    -0.56400
O259        O  0.23804220  0.38835540  0.06266676    -0.56400
O260        O  0.30605401  0.36729305  0.00518756    -0.55600
O261        O  0.28635174  0.17855494  0.52906637    -0.56800
C262        C  0.19281279  0.17125983  0.47533961     0.75800
O263        O  0.25209680  0.10825140  0.43582644    -0.57900
C264        C  0.31698696  0.16984843  0.51791947     0.75800
C265        C  0.23207731  0.08838908  0.55957568     0.78200
Cd266      Cd  0.25413725  0.12958036  0.49814543     1.37500
O267        O  0.19041984  0.14575903  0.49706895    -0.56800
O268        O  0.24991520  0.11664518  0.56230774    -0.55600
C269        C  0.27783690  0.08673884  0.43858803     0.78200
O270        O  0.22577520  0.07798177  0.52816732    -0.58000
O271        O  0.22399458  0.17886446  0.46511941    -0.56400
O272        O  0.31801224  0.14417131  0.49631364    -0.56400
O273        O  0.29076290  0.08306119  0.46943057    -0.55600
O274        O  0.03426313  0.22849957  0.42742325    -0.56800
C275        C  0.94097836  0.27692644  0.41638064     0.75800
O276        O  0.02993116  0.28106538  0.32263441    -0.57900
C277        C  0.06490374  0.23137528  0.41375803     0.75800
C278        C  0.97550208  0.18986230  0.33872742     0.78200
Cd279      Cd  0.00121162  0.25235602  0.37499768     1.37500
O280        O  0.97250495  0.28536106  0.42451082    -0.56800
O281        O  0.98997214  0.18844309  0.36903128    -0.55600
C282        C  0.02061578  0.31242077  0.33068639     0.78200
O283        O  0.97393079  0.22025180  0.32439137    -0.58000
O284        O  0.93759888  0.25640071  0.38996328    -0.56400
O285        O  0.06600874  0.24487884  0.38297227    -0.56400
O286        O  0.00143519  0.31561328  0.35819494    -0.55600
O287        O  0.72077284  0.33140287  0.51451303    -0.56800
C288        C  0.81773874  0.34472521  0.47832315     0.75800
O289        O  0.73150256  0.43631123  0.46394232    -0.57900
C290        C  0.69117856  0.34728417  0.51734369     0.75800
C291        C  0.77784238  0.42213534  0.56179417     0.78200
Cd292      Cd  0.75520396  0.38495101  0.49794469     1.37500
O293        O  0.81930210  0.37697353  0.48762227    -0.56800
O294        O  0.78230244  0.43526945  0.53106832    -0.55600
C295        C  0.73321490  0.42158852  0.43366767     0.78200
O296        O  0.76216139  0.39248503  0.56292644    -0.58000
O297        O  0.78721194  0.33070414  0.47882596    -0.56400
O298        O  0.69148565  0.38034927  0.51136166    -0.56400
O299        O  0.74637756  0.39068651  0.43306194    -0.55600
O300        O  0.53530808  0.28925077  0.56870720    -0.56800
C301        C  0.44507759  0.23008756  0.57837581     0.75800
O302        O  0.54386716  0.22313291  0.66403009    -0.57900
C303        C  0.56640413  0.27675544  0.57148342     0.75800
C304        C  0.49008204  0.31454649  0.66020517     0.78200
Cd305      Cd  0.50853017  0.25291242  0.61631147     1.37500
O306        O  0.44381010  0.24766931  0.60703332    -0.56800
O307        O  0.50408646  0.31766009  0.62975058    -0.55600
C308        C  0.53374689  0.19187956  0.65681591     0.78200
O309        O  0.48573181  0.28297757  0.67101158    -0.58000
O310        O  0.47589841  0.22370239  0.56633599    -0.56400
O311        O  0.57031123  0.25127014  0.59304992    -0.56400
O312        O  0.51146420  0.18920957  0.63182254    -0.55600
C313        C  0.65871792  0.29151835  0.53364167    -0.20300
C314        C  0.65816964  0.32840563  0.52764173    -0.08300
C315        C  0.62605649  0.34707998  0.53274566     0.30500
C316        C  0.59577872  0.32941345  0.54487371    -0.20300
C317        C  0.59688162  0.29299682  0.55274484    -0.08300
C318        C  0.62843708  0.27393113  0.54624124     0.30500
F319        F  0.63016974  0.23845723  0.55247811    -0.18900
H320        H  0.68287485  0.27636875  0.52943897     0.18900
H321        H  0.57186004  0.34471822  0.54988838     0.18900
F322        F  0.62408274  0.38268881  0.52741792    -0.18800
C323        C  0.91371178  0.32098747  0.45810831    -0.20300
C324        C  0.90972674  0.29140274  0.43568835    -0.08300
C325        C  0.87541284  0.27759973  0.43017614     0.30500
C326        C  0.84576671  0.29416197  0.44550906    -0.20300
C327        C  0.84962459  0.32497426  0.46621154    -0.08300
C328        C  0.88403012  0.33777275  0.47310261     0.30500
F329        F  0.88903921  0.36686583  0.49382828    -0.18900
H330        H  0.93978884  0.33200940  0.46302569     0.18900
H331        H  0.81960534  0.28362052  0.43999651     0.18900
F332        F  0.87030690  0.24857292  0.40937652    -0.18800
C333        C  0.34772682  0.21421163  0.55667835    -0.20300
C334        C  0.34989139  0.18759237  0.53055422    -0.08300
C335        C  0.38381426  0.17658978  0.51871495     0.30500
C336        C  0.41459861  0.19126745  0.53356764    -0.20300
C337        C  0.41235207  0.21699696  0.56062023    -0.08300
C338        C  0.37846727  0.22871658  0.57163104     0.30500
F339        F  0.37487470  0.25390506  0.59725211    -0.18900
H340        H  0.32210245  0.22327429  0.56628670     0.18900
H341        H  0.44026225  0.18171365  0.52455036     0.18900
F342        F  0.38741590  0.15097136  0.49349220    -0.18800
C343        C  0.13120121  0.22690217  0.41750101    -0.20300
C344        C  0.09767053  0.21885404  0.43197666    -0.08300
C345        C  0.09603979  0.19718516  0.46248849     0.30500
C346        C  0.12717450  0.18283857  0.47707714    -0.20300
C347        C  0.16062899  0.18992626  0.46185826    -0.08300
C348        C  0.16234409  0.21280376  0.43226472     0.30500
F349        F  0.19392769  0.22048520  0.41659921    -0.18900
H350        H  0.13333869  0.24362465  0.39413921     0.18900
H351        H  0.12497070  0.16542403  0.49991888     0.18900
F352        F  0.06434029  0.18862845  0.47746837    -0.18800
C353        C  0.48728488  0.38066007  0.67033040    -0.20300
C354        C  0.47810027  0.34604731  0.68114487    -0.08300
C355        C  0.45517052  0.34208620  0.71052600     0.30500
C356        C  0.43994222  0.37188154  0.72693468    -0.20300
C357        C  0.44749558  0.40641583  0.71493508    -0.08300
C358        C  0.47247229  0.41058532  0.68721089     0.30500
F359        F  0.48129128  0.44340426  0.67518095    -0.18900
H360        H  0.50522682  0.38459932  0.64809359     0.18900
H361        H  0.42120694  0.36778354  0.74847127     0.18900
F362        F  0.44589231  0.30935167  0.72236735    -0.18800
C363        C  0.27585535  0.41432608  0.86971432    -0.20300
C364        C  0.27926363  0.43067794  0.90320133    -0.08300
C365        C  0.29916971  0.46218713  0.90569248     0.30500
C366        C  0.31691043  0.47563873  0.87573909    -0.20300
C367        C  0.31462578  0.45848779  0.84253818    -0.08300
C368        C  0.29302970  0.42814674  0.83964238     0.30500
F369        F  0.28974769  0.41078948  0.80815219    -0.18900
H370        H  0.26049433  0.39020872  0.86690756     0.18900
H371        H  0.33297558  0.49927226  0.87868101     0.18900
F372        F  0.30284475  0.47920300  0.93733275    -0.18800
C373        C  0.17627757  0.45831058  0.08944200    -0.20300
C374        C  0.20440530  0.43385064  0.09236011    -0.08300
C375        C  0.21789004  0.42593377  0.12640734     0.30500
C376        C  0.20335545  0.44200636  0.15668726    -0.20300
C377        C  0.17463575  0.46569695  0.15389545    -0.08300
C378        C  0.16125509  0.47386896  0.11985871     0.30500
F379        F  0.13350412  0.49663471  0.11589727    -0.18900
H380        H  0.16522941  0.46471684  0.06362941     0.18900
H381        H  0.21393847  0.43499332  0.18254047     0.18900
F382        F  0.24480051  0.40224022  0.13065484    -0.18800
C383        C  0.03238595  0.40782099  0.30035658    -0.20300
C384        C  0.06399403  0.40546776  0.28051599    -0.08300
C385        C  0.07857603  0.37159732  0.27364043     0.30500
C386        C  0.06307216  0.34116805  0.28833592    -0.20300
C387        C  0.03296680  0.34384621  0.31036177    -0.08300
C388        C  0.01702528  0.37740780  0.31523838     0.30500
F389        F  0.98709338  0.38103401  0.33516351    -0.18900
H390        H  0.02029437  0.43343751  0.30565141     0.18900
H391        H  0.07567224  0.31564508  0.28381427     0.18900
F392        F  0.10839624  0.36785669  0.25355500    -0.18800
C393        C  0.03850049  0.60166069  0.20351563    -0.20300
C394        C  0.07273102  0.60247130  0.21829035    -0.08300
C395        C  0.09086341  0.63520069  0.21949169     0.30500
C396        C  0.07527359  0.66595539  0.20519933    -0.20300
C397        C  0.04156920  0.66467238  0.18916476    -0.08300
C398        C  0.02309501  0.63223272  0.18906443     0.30500
F399        F  0.99017473  0.62983138  0.17463303    -0.18900
H400        H  0.02377034  0.57702771  0.20238501     0.18900
H401        H  0.09010655  0.69055393  0.20564561     0.18900
F402        F  0.12389382  0.63746983  0.23373634    -0.18800
C403        C  0.92133762  0.12955068  0.27889543    -0.20300
C404        C  0.92948881  0.09588140  0.29287576    -0.08300
C405        C  0.95387519  0.09336391  0.32109179     0.30500
C406        C  0.96909793  0.12401148  0.33537777    -0.20300
C407        C  0.96069196  0.15771984  0.32166726    -0.08300
C408        C  0.93688074  0.16019522  0.29293393     0.30500
F409        F  0.92766758  0.19221792  0.27910109    -0.18900
H410        H  0.90260732  0.13222980  0.25720962     0.18900
H411        H  0.98728160  0.12134254  0.35752601     0.18900
F412        F  0.96217669  0.06145809  0.33574587    -0.18800
C413        C  0.95958714  0.91522618  0.19128891    -0.20300
C414        C  0.93790593  0.91171807  0.22153830    -0.08300
C415        C  0.93341962  0.87782914  0.23668547     0.30500
C416        C  0.94874100  0.84790744  0.22060954    -0.20300
C417        C  0.96865125  0.85111049  0.18906762    -0.08300
C418        C  0.97467435  0.88531510  0.17502818     0.30500
F419        F  0.99400532  0.88990780  0.14482667    -0.18900
H420        H  0.96350228  0.94101787  0.17913432     0.18900
H421        H  0.94398958  0.82203381  0.23225835     0.18900
F422        F  0.91362711  0.87346306  0.26662303    -0.18800
C423        C  0.23005507  0.07974064  0.62555068    -0.20300
C424        C  0.21832851  0.06967197  0.59150253    -0.08300
C425        C  0.19162371  0.04372227  0.58874929     0.30500
C426        C  0.17599375  0.02956054  0.61944833    -0.20300
C427        C  0.18683584  0.04058766  0.65349577    -0.08300
C428        C  0.21470894  0.06527561  0.65624819     0.30500
F429        F  0.22631212  0.07653559  0.68851062    -0.18900
H430        H  0.25068348  0.09951441  0.62849175     0.18900
H431        H  0.15478239  0.01041362  0.61650287     0.18900
F432        F  0.17947428  0.03304959  0.55649125    -0.18800
C433        C  0.15640168  0.79274378  0.05638002    -0.20300
C434        C  0.15285222  0.82266263  0.03432979    -0.08300
C435        C  0.11846976  0.83541907  0.02666884     0.30500
C436        C  0.08858438  0.81940570  0.04197832    -0.20300
C437        C  0.09224540  0.79058840  0.06545682    -0.08300
C438        C  0.12654316  0.77693646  0.07196538     0.30500
F439        F  0.13145848  0.74888653  0.09412411    -0.18900
H440        H  0.18248116  0.78226401  0.06262677     0.18900
H441        H  0.06258107  0.83043287  0.03638508     0.18900
F442        F  0.11363780  0.86380030  0.00491589    -0.18800
C443        C  0.22479323  0.92843523  0.87061524    -0.20300
C444        C  0.21257672  0.93908667  0.90440468    -0.08300
C445        C  0.18676135  0.96613874  0.90660122     0.30500
C446        C  0.17286965  0.98130597  0.87560870    -0.20300
C447        C  0.18443401  0.97002192  0.84181805    -0.08300
C448        C  0.21104948  0.94376380  0.83961519     0.30500
F449        F  0.22277679  0.93174825  0.80757676    -0.18900
H450        H  0.24462660  0.90766854  0.86810983     0.18900
H451        H  0.15236737  0.00141780  0.87809610     0.18900
F452        F  0.17378639  0.97699078  0.93856623    -0.18800
C453        C  0.08429661  0.31064577  0.95988983    -0.20300
C454        C  0.08793894  0.28405241  0.93391645    -0.08300
C455        C  0.12222941  0.27144793  0.92540230     0.30500
C456        C  0.15215658  0.28642770  0.94146570    -0.20300
C457        C  0.14854139  0.31446856  0.96588771    -0.08300
C458        C  0.11418292  0.32584736  0.97564460     0.30500
F459        F  0.10935365  0.35232711  0.99973420    -0.18900
H460        H  0.05826592  0.32067869  0.96715704     0.18900
H461        H  0.17827002  0.27709754  0.93358306     0.18900
F462        F  0.12704487  0.24547347  0.90076082    -0.18800
C463        C  0.05727352  0.16213310  0.78650262    -0.20300
C464        C  0.03250530  0.15794452  0.81423946    -0.08300
C465        C  0.02381966  0.12332522  0.82544745     0.30500
C466        C  0.04028793  0.09380030  0.80981160    -0.20300
C467        C  0.06605605  0.09803121  0.78302851    -0.08300
C468        C  0.07408162  0.13260252  0.77116426     0.30500
F469        F  0.09859704  0.13804220  0.74517824    -0.18900
H470        H  0.06453584  0.18842189  0.77737953     0.18900
H471        H  0.03360360  0.06756461  0.81951600     0.18900
F472        F  0.99993284  0.11788042  0.85201547    -0.18800
C473        C  0.78864162  0.06178862  0.16243183    -0.20300
C474        C  0.81609333  0.03668071  0.15900611    -0.08300
C475        C  0.82694364  0.02634246  0.12455289     0.30500
C476        C  0.81115863  0.04162867  0.09440611    -0.20300
C477        C  0.78453071  0.06770946  0.09791284    -0.08300
C478        C  0.77314772  0.07729779  0.13239814     0.30500
F479        F  0.74758897  0.10233946  0.13732322    -0.18900
H480        H  0.77979817  0.07034550  0.18853972     0.18900
H481        H  0.82053688  0.03375077  0.06827185     0.18900
F482        F  0.85316469  0.00191962  0.11988384    -0.18800
C483        C  0.90633083  0.19289663  0.96283345    -0.20300
C484        C  0.90240682  0.21917283  0.93660316    -0.08300
C485        C  0.86805503  0.23179176  0.92871177     0.30500
C486        C  0.83826417  0.21698954  0.94540270    -0.20300
C487        C  0.84204136  0.18912957  0.96999934    -0.08300
C488        C  0.87655261  0.17784147  0.97926882     0.30500
F489        F  0.88162646  0.15153915  0.00345629    -0.18900
H490        H  0.93246325  0.18287540  0.96959944     0.18900
H491        H  0.81210261  0.22644669  0.93799517     0.18900
F492        F  0.86313683  0.25799996  0.90439802    -0.18800
C493        C  0.27285909  0.06478652  0.37591102    -0.20300
C494        C  0.29299829  0.06833135  0.40714016    -0.08300
C495        C  0.32862641  0.05686055  0.40695123     0.30500
C496        C  0.34382834  0.04295173  0.37589640    -0.20300
C497        C  0.32396102  0.04011010  0.34436591    -0.08300
C498        C  0.28802171  0.05066678  0.34486024     0.30500
F499        F  0.26763091  0.04804747  0.31524139    -0.18900
H500        H  0.24539763  0.07346001  0.37537587     0.18900
H501        H  0.37155813  0.03518904  0.37635988     0.18900
F502        F  0.34940820  0.06079125  0.43617510    -0.18800
C503        C  0.29002381  0.94436139  0.15815212    -0.20300
C504        C  0.31556984  0.97121282  0.15423228    -0.08300
C505        C  0.32349866  0.98362039  0.11976066     0.30500
C506        C  0.30761501  0.96809573  0.08987704    -0.20300
C507        C  0.28372792  0.93970453  0.09363327    -0.08300
C508        C  0.27436721  0.92859113  0.12825826     0.30500
F509        F  0.25068162  0.90194098  0.13332966    -0.18900
H510        H  0.28321847  0.93449311  0.18437219     0.18900
H511        H  0.31498856  0.97755520  0.06366364     0.18900
F512        F  0.34698784  0.01047194  0.11485311    -0.18800
C513        C  0.43314441  0.84350111  0.29098889    -0.20300
C514        C  0.45928219  0.84608247  0.31750781    -0.08300
C515        C  0.47256001  0.87995666  0.32618212     0.30500
C516        C  0.45921478  0.91044046  0.30938150    -0.20300
C517        C  0.43204518  0.90801444  0.28389817    -0.08300
C518        C  0.41946590  0.87402876  0.27449978     0.30500
F519        F  0.39348930  0.87020627  0.24980657    -0.18900
H520        H  0.42242944  0.81783757  0.28374541     0.18900
H521        H  0.46945386  0.93613469  0.31718260     0.18900
F522        F  0.49826202  0.88375741  0.35116323    -0.18800
C523        C  0.43660190  0.16612237  0.20495543    -0.20300
C524        C  0.46349337  0.16356528  0.17906520    -0.08300
C525        C  0.47600788  0.12957554  0.16935506     0.30500
C526        C  0.46099465  0.09899118  0.18439641    -0.20300
C527        C  0.43301957  0.10151200  0.20916062    -0.08300
C528        C  0.42134266  0.13557479  0.21971152     0.30500
F529        F  0.39482437  0.13953051  0.24396292    -0.18900
H530        H  0.42649671  0.19187403  0.21303372     0.18900
H531        H  0.47068850  0.07322215  0.17589597     0.18900
F532        F  0.50248691  0.12576799  0.14502885    -0.18800
C533        C  0.40227267  0.31682518  0.03861051    -0.20300
C534        C  0.40038952  0.29265067  0.06702450    -0.08300
C535        C  0.36664503  0.28280178  0.08006521     0.30500
C536        C  0.33574686  0.29735727  0.06527150    -0.20300
C537        C  0.33773894  0.32227330  0.03752196    -0.08300
C538        C  0.37140997  0.33164699  0.02409798     0.30500
F539        F  0.37465765  0.35535603  0.99707940    -0.18900
H540        H  0.42778123  0.32494924  0.02804281     0.18900
H541        H  0.31022190  0.28979497  0.07622780     0.18900
F542        F  0.36336333  0.25978342  0.10768081    -0.18800
C543        C  0.62682241  0.19660775  0.01907857    -0.20300
C544        C  0.65710683  0.19247557  0.04057863    -0.08300
C545        C  0.65636278  0.20601566  0.07546275     0.30500
C546        C  0.62563330  0.22221029  0.08880430    -0.20300
C547        C  0.59487483  0.22533178  0.06782883    -0.08300
C548        C  0.59605525  0.21314155  0.03238018     0.30500
F549        F  0.56742575  0.21660139  0.01074843    -0.18900
H550        H  0.62684644  0.18666715  0.99201117     0.18900
H551        H  0.62561058  0.23123921  0.11618873     0.18900
F552        F  0.68462474  0.20186760  0.09746509    -0.18800
C553        C  0.69824210  0.46965769  0.40410268    -0.20300
C554        C  0.71934844  0.43897165  0.40107998    -0.08300
C555        C  0.72499430  0.42414954  0.36704275     0.30500
C556        C  0.70909537  0.43936584  0.33700641    -0.20300
C557        C  0.68685785  0.46922896  0.34030166    -0.08300
C558        C  0.68193599  0.48452486  0.37418756     0.30500
F559        F  0.66092635  0.51357128  0.37862396    -0.18900
H560        H  0.69339022  0.48161601  0.42990083     0.18900
H561        H  0.71325900  0.42701384  0.31127321     0.18900
F562        F  0.74527510  0.39456984  0.36274186    -0.18800
C563        C  0.57390950  0.63223522  0.27765094    -0.20300
C564        C  0.56420575  0.59787076  0.28858687    -0.08300
C565        C  0.53772017  0.59427023  0.31489431     0.30500
C566        C  0.52180693  0.62440130  0.33004406    -0.20300
C567        C  0.53191697  0.65877981  0.31950270    -0.08300
C568        C  0.55809533  0.66235648  0.29288833     0.30500
F569        F  0.56932780  0.69490542  0.28227476    -0.18900
H570        H  0.59439297  0.63591081  0.25769250     0.18900
H571        H  0.50189736  0.62075953  0.35058307     0.18900
F572        F  0.52766766  0.56172311  0.32666275    -0.18800
C573        C  0.52155843  0.38845650  0.16937386    -0.20300
C574        C  0.53132460  0.35428751  0.18103210    -0.08300
C575        C  0.55607104  0.35115487  0.20887969     0.30500
C576        C  0.57150793  0.38145500  0.22372362    -0.20300
C577        C  0.56261982  0.41558361  0.21137614    -0.08300
C578        C  0.53687280  0.41884795  0.18442005     0.30500
F579        F  0.52754044  0.45121532  0.17150104    -0.18900
H580        H  0.50258340  0.39166509  0.14797643     0.18900
H581        H  0.59120413  0.37807766  0.24443010     0.18900
F582        F  0.56675540  0.31878488  0.22069661    -0.18800
C583        C  0.79531049  0.44379369  0.65913348    -0.20300
C584        C  0.82093273  0.47068167  0.65635918    -0.08300
C585        C  0.83080239  0.48281579  0.62230097     0.30500
C586        C  0.81575708  0.46777023  0.59175993    -0.20300
C587        C  0.79111235  0.43990641  0.59446725    -0.08300
C588        C  0.78076840  0.42827185  0.62860884     0.30500
F589        F  0.75695606  0.40156483  0.63262714    -0.18900
H590        H  0.78738143  0.43387817  0.68502130     0.18900
H591        H  0.82419784  0.47729755  0.56589183     0.18900
F592        F  0.85511257  0.50910845  0.61845495    -0.18800
C593        C  0.96415117  0.41009041  0.80400458    -0.20300
C594        C  0.93037411  0.40932328  0.78809787    -0.08300
C595        C  0.91286487  0.37642733  0.78492785     0.30500
C596        C  0.92839394  0.34541617  0.79816174    -0.20300
C597        C  0.96141325  0.34634975  0.81534507    -0.08300
C598        C  0.97954295  0.37896915  0.81764408     0.30500
F599        F  0.01193743  0.38090286  0.83331932    -0.18900
H600        H  0.97837645  0.43492156  0.80656191     0.18900
H601        H  0.91378828  0.32075010  0.79615074     0.18900
F602        F  0.88021664  0.37414144  0.76985779    -0.18800
C603        C  0.72051281  0.59211952  0.12946750    -0.20300
C604        C  0.71709279  0.57547696  0.09612089    -0.08300
C605        C  0.70034568  0.54212746  0.09443011     0.30500
C606        C  0.68546062  0.52706868  0.12510732    -0.20300
C607        C  0.68741431  0.54458355  0.15811826    -0.08300
C608        C  0.70603614  0.57687202  0.16017519     0.30500
F609        F  0.70878791  0.59470983  0.19145847    -0.18900
H610        H  0.73357880  0.61761293  0.13170785     0.18900
H611        H  0.67165126  0.50197261  0.12284868     0.18900
F612        F  0.69719243  0.52456846  0.06303759    -0.18800
C613        C  0.87734808  0.68369592  0.02526169    -0.20300
C614        C  0.84365326  0.69017918  0.04020216    -0.08300
C615        C  0.84123920  0.71172036  0.07074465     0.30500
C616        C  0.87195954  0.72568256  0.08632599    -0.20300
C617        C  0.90578304  0.71880195  0.07175592    -0.08300
C618        C  0.90807900  0.69801195  0.04060870     0.30500
F619        F  0.94001623  0.69071233  0.02538492    -0.18900
H620        H  0.87996229  0.66720293  0.00175558     0.18900
H621        H  0.86924843  0.74149752  0.11027930     0.18900
F622        F  0.80936334  0.71802734  0.08656393    -0.18800
C623        C  0.80621081  0.54656167  0.90903834    -0.20300
C624        C  0.78569057  0.57760558  0.90554896    -0.08300
C625        C  0.77965980  0.59139115  0.87120432     0.30500
C626        C  0.79471567  0.57494331  0.84131669    -0.20300
C627        C  0.81647369  0.54479340  0.84498705    -0.08300
C628        C  0.82165899  0.53039965  0.87918543     0.30500
F629        F  0.84200869  0.50095758  0.88392559    -0.18900
H630        H  0.81120076  0.53529063  0.93507907     0.18900
H631        H  0.79029732  0.58658724  0.81533272     0.18900
F632        F  0.75970529  0.62109480  0.86641208    -0.18800
C633        C  0.58677064  0.13220536  0.71926564    -0.20300
C634        C  0.57656657  0.09816645  0.70784843    -0.08300
C635        C  0.55131233  0.09530840  0.68044223     0.30500
C636        C  0.53709350  0.12586470  0.66461377    -0.20300
C637        C  0.54761798  0.15996455  0.67566711    -0.08300
C638        C  0.57238007  0.16279865  0.70358426     0.30500
F639        F  0.58307347  0.19504626  0.71555691    -0.18900
H640        H  0.60610109  0.13517841  0.74036334     0.18900
H641        H  0.51824782  0.12274402  0.64310599     0.18900
F642        F  0.54135349  0.06303209  0.66788484    -0.18800
C643        C  0.73035516  0.07072486  0.87931388    -0.20300
C644        C  0.71060052  0.07096610  0.91115535    -0.08300
C645        C  0.67656359  0.05564982  0.91128574     0.30500
C646        C  0.66247723  0.04111692  0.88008278    -0.20300
C647        C  0.68196083  0.04125129  0.84805175    -0.08300
C648        C  0.71640550  0.05580335  0.84812615     0.30500
F649        F  0.73638895  0.05634539  0.81800101    -0.18900
H650        H  0.75663134  0.08235468  0.87849372     0.18900
H651        H  0.63588581  0.03023198  0.88092824     0.18900
F652        F  0.65615454  0.05611002  0.94113645    -0.18800
C653        C  0.58813600  0.69236578  0.95854294    -0.20300
C654        C  0.59103955  0.71974916  0.93331047    -0.08300
C655        C  0.62504080  0.73316674  0.92524703     0.30500
C656        C  0.65538066  0.71839398  0.94098823    -0.20300
C657        C  0.65262054  0.68976165  0.96481518    -0.08300
C658        C  0.61850872  0.67734078  0.97400951     0.30500
F659        F  0.61440744  0.65027797  0.99751195    -0.18900
H660        H  0.56234421  0.68164851  0.96541801     0.18900
H661        H  0.68120569  0.72867370  0.93358196     0.18900
F662        F  0.62913087  0.76021293  0.90171423    -0.18800
C663        C  0.42428598  0.62545001  0.77477155    -0.20300
C664        C  0.43507609  0.59219649  0.78814037    -0.08300
C665        C  0.46117157  0.59133807  0.81493507     0.30500
C666        C  0.47493008  0.62299119  0.82882098    -0.20300
C667        C  0.46338653  0.65626027  0.81619635    -0.08300
C668        C  0.43831670  0.65711733  0.78843385     0.30500
F669        F  0.42630373  0.68850084  0.77530375    -0.18900
H670        H  0.40436140  0.62704613  0.75407735     0.18900
H671        H  0.49435202  0.62141639  0.84999315     0.18900
F672        F  0.47286257  0.55999608  0.82844947    -0.18800
C673        C  0.52797894  0.88169747  0.82796505    -0.20300
C674        C  0.53801597  0.84758848  0.81623544    -0.08300
C675        C  0.56424164  0.84473826  0.78953342     0.30500
C676        C  0.58054243  0.87525338  0.77577127    -0.20300
C677        C  0.57079062  0.90928679  0.78784210    -0.08300
C678        C  0.54395548  0.91221469  0.81386489     0.30500
F679        F  0.53411339  0.94445778  0.82680509    -0.18900
H680        H  0.50802668  0.88480252  0.84857740     0.18900
H681        H  0.60109385  0.87220914  0.75574521     0.18900
F682        F  0.57500550  0.81247843  0.77741396    -0.18800
C683        C  0.37505775  0.83255616  0.97158848    -0.20300
C684        C  0.34095557  0.82121994  0.96154443    -0.08300
C685        C  0.33805856  0.79345741  0.93653218     0.30500
C686        C  0.36860659  0.77879525  0.92081766    -0.20300
C687        C  0.40263486  0.79087604  0.93020473    -0.08300
C688        C  0.40556024  0.81746489  0.95636426     0.30500
F689        F  0.43782812  0.83012165  0.96611107    -0.18900
H690        H  0.37819284  0.85374482  0.99082997     0.18900
H691        H  0.36561294  0.75814340  0.90097028     0.18900
F692        F  0.30577826  0.78112587  0.92639472    -0.18800
C693        C  0.94112387  0.66446661  0.71565395    -0.20300
C694        C  0.96503358  0.66114064  0.68705856    -0.08300
C695        C  0.97517409  0.62686321  0.67576417     0.30500
C696        C  0.96068996  0.59677125  0.69198013    -0.20300
C697        C  0.93542630  0.60010113  0.71934220    -0.08300
C698        C  0.92623450  0.63433142  0.73153835     0.30500
F699        F  0.90232025  0.63880314  0.75829901    -0.18900
H700        H  0.93293526  0.69047895  0.72494841     0.18900
H701        H  0.96821271  0.57078990  0.68205482     0.18900
F702        F  0.99845947  0.62227127  0.64847314    -0.18800
C703        C  0.06681635  0.84554302  0.70592902    -0.20300
C704        C  0.03767453  0.84893498  0.68287209    -0.08300
C705        C  0.02432225  0.88312779  0.67553442     0.30500
C706        C  0.04036829  0.91317012  0.69034832    -0.20300
C707        C  0.07030511  0.90990257  0.71238744    -0.08300
C708        C  0.08317842  0.87561304  0.72038386     0.30500
F709        F  0.11192064  0.87101021  0.74167018    -0.18900
H710        H  0.07770859  0.81956840  0.71192543     0.18900
H711        H  0.02981372  0.93914367  0.68379560     0.18900
F712        F  0.99587464  0.88764882  0.65385854    -0.18800
C713        C  0.72838705  0.92677726  0.62638648    -0.20300
C714        C  0.71287932  0.93370085  0.59306869    -0.08300
C715        C  0.68471059  0.95827137  0.59111725     0.30500
C716        C  0.67129326  0.97401062  0.62211292    -0.20300
C717        C  0.68579143  0.96596027  0.65564953    -0.08300
C718        C  0.71522377  0.94287316  0.65737478     0.30500
F719        F  0.73036487  0.93457782  0.68906066    -0.18900
H720        H  0.75031769  0.90821668  0.62859707     0.18900
H721        H  0.64880610  0.99189244  0.61990257     0.18900
F722        F  0.66890789  0.96585326  0.55956131    -0.18800
C723        C  0.61518970  0.82970025  0.47462296    -0.20300
C724        C  0.64827533  0.81325046  0.46859641    -0.08300
C725        C  0.64914467  0.78098377  0.44959786     0.30500
C726        C  0.61783874  0.76693405  0.43517756    -0.20300
C727        C  0.58502496  0.78440688  0.43979126    -0.08300
C728        C  0.58391922  0.81547079  0.46060394     0.30500
F729        F  0.55291975  0.83320773  0.46600461    -0.18900
H730        H  0.61354388  0.85434840  0.48942651     0.18900
H731        H  0.61943279  0.74274734  0.41961840     0.18900
F732        F  0.68028106  0.76359988  0.44383135    -0.18800
C733        C  0.83807427  0.78784301  0.56191277    -0.20300
C734        C  0.84034667  0.81596264  0.53739997    -0.08300
C735        C  0.87420625  0.82919099  0.52838505     0.30500
C736        C  0.90476316  0.81519196  0.54425731    -0.20300
C737        C  0.90240999  0.78800055  0.56969800    -0.08300
C738        C  0.86869599  0.77402358  0.57802035     0.30500
F739        F  0.86520156  0.74717127  0.60187003    -0.14100
H740        H  0.81245923  0.77703478  0.56929356     0.18900
H741        H  0.93031040  0.82648146  0.53737732     0.18900
F742        F  0.87791940  0.85637531  0.50495681    -0.18800
C743        C  0.80092057  0.96125529  0.41019218    -0.20300
C744        C  0.78083640  0.93009428  0.40608575    -0.08300
C745        C  0.77509131  0.91690078  0.37148522     0.30500
C746        C  0.79014477  0.93383915  0.34197605    -0.20300
C747        C  0.81153523  0.96403836  0.34618624    -0.08300
C748        C  0.81624251  0.97805373  0.38065257     0.30500
F749        F  0.83613957  0.00758753  0.38600013    -0.18900
H750        H  0.80562697  0.97215264  0.43644549     0.18900
H751        H  0.78600853  0.92248821  0.31581802     0.18900
F752        F  0.75555236  0.88716294  0.36605567    -0.18800
C753        C  0.40108906  0.68786931  0.46288590    -0.20300
C754        C  0.39708922  0.71402039  0.43654451    -0.08300
C755        C  0.36247767  0.72447074  0.42670146     0.30500
C756        C  0.33272974  0.70794750  0.44191782    -0.20300
C757        C  0.33683403  0.68047148  0.46692303    -0.08300
C758        C  0.37143672  0.67110012  0.47777564     0.30500
F759        F  0.37679494  0.64526654  0.50239574    -0.18900
H760        H  0.42733695  0.67940503  0.47112895     0.18900
H761        H  0.30646379  0.71592956  0.43327597     0.18900
F762        F  0.35730471  0.75026638  0.40199513    -0.18800
C763        C  0.12474426  0.72799609  0.57479089    -0.20300
C764        C  0.09067811  0.71449826  0.56789478    -0.08300
C765        C  0.08739382  0.68478292  0.54543564     0.30500
C766        C  0.11771712  0.66826576  0.53135372    -0.20300
C767        C  0.15191744  0.68114425  0.53902966    -0.08300
C768        C  0.15505532  0.71178356  0.56031553     0.30500
F769        F  0.18739591  0.72555368  0.56809755    -0.18900
H770        H  0.12798232  0.75092300  0.59190077     0.18900
H771        H  0.11440126  0.64478483  0.51504046     0.18900
F772        F  0.05505268  0.67051889  0.53853063    -0.18800
C773        C  0.22701403  0.55459024  0.38263989    -0.20300
C774        C  0.20653125  0.55784144  0.41382774    -0.08300
C775        C  0.17144061  0.54501440  0.41372020     0.30500
C776        C  0.15672239  0.53114811  0.38250696    -0.20300
C777        C  0.17663897  0.52942170  0.35080612    -0.08300
C778        C  0.21243928  0.54021706  0.35152001     0.30500
F779        F  0.23311153  0.53801920  0.32193544    -0.18900
H780        H  0.25422929  0.56384858  0.38213448     0.18900
H781        H  0.12922327  0.52276508  0.38293293     0.18900
F782        F  0.15060227  0.54765249  0.44316554    -0.18800
C783        C  0.30865671  0.53283229  0.59507007    -0.20300
C784        C  0.28420237  0.56083213  0.59933779    -0.08300
C785        C  0.27558486  0.57206396  0.63409734     0.30500
C786        C  0.29214537  0.55655532  0.66362454    -0.20300
C787        C  0.31785266  0.52972240  0.65930837    -0.08300
C788        C  0.32545168  0.51749084  0.62462013     0.30500
F789        F  0.34958554  0.49118475  0.61907021    -0.18900
H790        H  0.31570339  0.52352096  0.56868880     0.18900
H791        H  0.28554749  0.56638457  0.68993170     0.18900
F792        F  0.25149970  0.59840650  0.63966791    -0.18800
loop_ 
_geom_bond_atom_site_label_1 
_geom_bond_atom_site_label_2 
_geom_bond_distance 
_geom_bond_site_symmetry_2 
_ccdc_geom_bond_type 
O1            C4   1.265       .  A
O1           Cd6   2.483       .  S
C2           O11   1.264       .  A
C2            O7   1.265       .  A
C2          C784   1.488       .  S
O3            C9   1.268       .  A
O3           Cd6   2.507       .  S
C4           O12   1.265       .  A
C4          C774   1.484       .  S
C5           O10   1.267       .  A
C5            O8   1.264       .  A
C5          C767   1.487       .  S
Cd6          O13   2.459       .  S
Cd6          O12   2.484       .  S
Cd6          O11   2.481       .  S
Cd6           O7   2.502       .  S
Cd6          O10   2.494       .  S
Cd6           O8   2.471       .  S
C9           O13   1.264       .  A
C9          C757   1.487       .  S
O14          C17   1.265       .  A
O14         Cd19   2.468       .  S
C15          O24   1.264       .  A
C15          O20   1.266       .  A
C15         C714   1.482       .  S
O16          C22   1.267       .  A
O16         Cd19   2.511       .  S
C17          O25   1.266       .  A
C17         C744   1.485       .  S
C18          O23   1.268       .  A
C18          O21   1.264       .  A
C18         C734   1.486       .  S
Cd19         O26   2.460       .  S
Cd19         O25   2.483       .  S
Cd19         O24   2.465       .  S
Cd19         O20   2.480       .  S
Cd19         O23   2.496       .  S
Cd19         O21   2.454       .  S
C22          O26   1.264       .  A
C22         C724   1.488       .  S
O27          C30   1.263       .  A
O27         Cd32   2.448       .  S
C28          O37   1.266       .  A
C28          O33   1.265       .  A
C28         C704   1.484       .  S
O29          C35   1.266       .  A
O29         Cd32   2.488   1_455  S
C30          O38   1.268       .  A
C30         C694   1.482       .  S
C31          O36   1.264       .  A
C31          O34   1.267       .  A
C31         C737   1.484       .  S
Cd32         O39   2.466   1_655  S
Cd32         O38   2.489       .  S
Cd32         O37   2.486   1_655  S
Cd32         O33   2.471   1_655  S
Cd32         O36   2.474       .  S
Cd32         O34   2.483       .  S
C35          O39   1.264       .  A
C35         C764   1.482       .  S
O40          C43   1.265       .  A
O40         Cd45   2.483       .  S
C41          O50   1.264       .  A
C41          O46   1.267       .  A
C41         C654   1.486       .  S
O42          C48   1.264       .  A
O42         Cd45   2.475       .  S
C43          O51   1.266       .  A
C43         C687   1.485       .  S
C44          O49   1.268       .  A
C44          O47   1.265       .  A
C44         C674   1.490       .  S
Cd45         O52   2.513       .  S
Cd45         O51   2.488       .  S
Cd45         O50   2.468       .  S
Cd45         O46   2.497       .  S
Cd45         O49   2.501       .  S
Cd45         O47   2.476       .  S
C48          O52   1.268       .  A
C48         C667   1.490       .  S
O53          C56   1.264       .  A
O53         Cd58   2.458       .  S
C54          O63   1.264       .  A
C54          O59   1.268       .  A
C54         C717   1.485       .  S
O55          C61   1.267       .  A
O55         Cd58   2.496   1_565  S
C56          O64   1.268       .  A
C56         C647   1.488       .  S
C57          O62   1.265       .  A
C57          O60   1.267       .  A
C57         C634   1.485       .  S
Cd58         O65   2.481   1_545  S
Cd58         O64   2.504       .  S
Cd58         O63   2.448   1_545  S
Cd58         O59   2.502   1_545  S
Cd58         O62   2.474       .  S
Cd58         O60   2.488       .  S
C61          O65   1.265       .  A
C61         C677   1.487       .  S
O66          C69   1.266       .  A
O66         Cd71   2.488       .  S
C67          O76   1.264       .  A
C67          O72   1.267       .  A
C67         C657   1.487       .  S
O68          C74   1.267       .  A
O68         Cd71   2.482   1_556  S
C69          O77   1.264       .  A
C69         C614   1.486       .  S
C70          O75   1.267       .  A
C70          O73   1.264       .  A
C70         C604   1.485       .  S
Cd71         O78   2.464   1_554  S
Cd71         O77   2.480       .  S
Cd71         O76   2.477   1_554  S
Cd71         O72   2.496   1_554  S
Cd71         O75   2.495       .  S
Cd71         O73   2.454       .  S
C74          O78   1.265       .  A
C74         C624   1.484       .  S
O79          C82   1.267       .  A
O79         Cd84   2.481       .  S
C80          O89   1.264       .  A
C80          O85   1.268       .  A
C80         C594   1.486       .  S
O81          C87   1.267       .  A
O81         Cd84   2.477       .  S
C82          O90   1.263       .  A
C82         C697   1.482       .  S
C83          O88   1.266       .  A
C83          O86   1.264       .  A
C83         C584   1.482       .  S
Cd84         O91   2.464       .  S
Cd84         O90   2.461       .  S
Cd84         O89   2.440       .  S
Cd84         O85   2.503       .  S
Cd84         O88   2.488       .  S
Cd84         O86   2.470       .  S
C87          O91   1.265       .  A
C87         C627   1.482       .  S
O92          C95   1.265       .  A
O92         Cd97   2.470       .  S
C93         O102   1.264       .  A
C93          O98   1.267       .  A
C93         C577   1.485       .  S
O94         C100   1.266       .  A
O94         Cd97   2.482       .  S
C95         O103   1.266       .  A
C95         C564   1.487       .  S
C96         O101   1.263       .  A
C96          O99   1.266       .  A
C96         C557   1.482       .  S
Cd97        O104   2.471       .  S
Cd97        O103   2.485       .  S
Cd97        O102   2.457       .  S
Cd97         O98   2.499       .  S
Cd97        O101   2.457       .  S
Cd97         O99   2.491       .  S
C100        O104   1.264       .  A
C100        C607   1.483       .  S
O105        C108   1.264       .  A
O105       Cd110   2.478       .  S
C106        O115   1.265       .  A
C106        O111   1.268       .  A
C106        C524   1.487       .  S
O107        C113   1.264       .  A
O107       Cd110   2.464       .  S
C108        O116   1.266       .  A
C108        C574   1.485       .  S
C109        O114   1.268       .  A
C109        O112   1.264       .  A
C109        C547   1.486       .  S
Cd110       O117   2.487       .  S
Cd110       O116   2.480       .  S
Cd110       O115   2.473       .  S
Cd110       O111   2.486       .  S
Cd110       O114   2.510       .  S
Cd110       O112   2.445       .  S
C113        O117   1.267       .  A
C113        C534   1.486       .  S
O118        C121   1.267       .  A
O118       Cd123   2.508   1_565  S
C119        O128   1.264       .  A
C119        O124   1.268       .  A
C119        C527   1.490       .  S
O120        C126   1.267       .  A
O120       Cd123   2.497   1_565  S
C121        O129   1.263       .  A
C121        C517   1.490       .  S
C122        O127   1.267       .  A
C122        O125   1.264       .  A
C122        C497   1.485       .  S
Cd123       O130   2.470   1_545  S
Cd123       O129   2.480   1_545  S
Cd123       O128   2.476       .  S
Cd123       O124   2.506       .  S
Cd123       O127   2.488       .  S
Cd123       O125   2.461       .  S
C126        O130   1.265       .  A
C126        C504   1.486       .  S
O131        C134   1.264       .  A
O131       Cd136   2.476       .  S
C132        O141   1.265       .  A
C132        O137   1.267       .  A
C132        C567   1.487       .  S
O133        C139   1.264       .  A
O133       Cd136   2.480       .  S
C134        O142   1.267       .  A
C134        C514   1.489       .  S
C135        O140   1.264       .  A
C135        O138   1.266       .  A
C135        C754   1.486       .  S
Cd136       O143   2.489       .  S
Cd136       O142   2.507       .  S
Cd136       O141   2.473       .  S
Cd136       O137   2.488       .  S
Cd136       O140   2.480       .  S
Cd136       O138   2.492       .  S
C139        O143   1.266       .  A
C139        C727   1.486       .  S
O144        C147   1.267       .  A
O144       Cd149   2.489   1_556  S
C145        O154   1.266       .  A
C145        O150   1.263       .  A
C145        C477   1.488       .  S
O146        C152   1.267       .  A
O146       Cd149   2.496   1_556  S
C147        O155   1.264       .  A
C147        C644   1.485       .  S
C148        O153   1.266       .  A
C148        O151   1.264       .  A
C148        C544   1.483       .  S
Cd149       O156   2.461   1_554  S
Cd149       O155   2.476   1_554  S
Cd149       O154   2.507       .  S
Cd149       O150   2.466       .  S
Cd149       O153   2.483       .  S
Cd149       O151   2.484       .  S
C152        O156   1.263       .  A
C152        C487   1.485       .  S
O157        C160   1.264       .  A
O157       Cd162   2.463   1_455  S
C158        O167   1.264       .  A
C158        O163   1.267       .  A
C158        C597   1.482       .  S
O159        C165   1.266       .  A
O159       Cd162   2.487       .  S
C160        O168   1.266       .  A
C160        C464   1.484       .  S
C161        O166   1.267       .  A
C161        O164   1.264       .  A
C161        C454   1.480       .  S
Cd162       O169   2.471       .  S
Cd162       O168   2.487   1_655  S
Cd162       O167   2.478       .  S
Cd162       O163   2.475       .  S
Cd162       O166   2.465   1_655  S
Cd162       O164   2.456   1_655  S
C165        O169   1.264       .  A
C165        C484   1.483       .  S
O170        C173   1.266       .  A
O170       Cd175   2.493       .  S
C171        O180   1.267       .  A
C171        O176   1.264       .  A
C171        C434   1.485       .  S
O172        C178   1.267       .  A
O172       Cd175   2.498   1_554  S
C173        O181   1.265       .  A
C173        C684   1.488       .  S
C174        O179   1.266       .  A
C174        O177   1.264       .  A
C174        C444   1.483       .  S
Cd175       O182   2.474   1_556  S
Cd175       O181   2.471       .  S
Cd175       O180   2.491   1_556  S
Cd175       O176   2.465   1_556  S
Cd175       O179   2.488       .  S
Cd175       O177   2.467       .  S
C178        O182   1.265       .  A
C178        C507   1.489       .  S
O183        C186   1.267       .  A
O183       Cd188   2.484   1_565  S
C184        O193   1.265       .  A
C184        O189   1.266       .  A
C184        C467   1.485       .  S
O185        C191   1.266       .  A
O185       Cd188   2.481   1_565  S
C186        O194   1.264       .  A
C186        C707   1.485       .  S
C187        O192   1.267       .  A
C187        O190   1.265       .  A
C187        C427   1.484       .  S
Cd188       O195   2.456       .  S
Cd188       O194   2.467   1_545  S
Cd188       O193   2.473       .  S
Cd188       O189   2.480       .  S
Cd188       O192   2.481       .  S
Cd188       O190   2.461       .  S
C191        O195   1.264   1_565  A
C191        C447   1.482       .  S
O196        C199   1.267       .  A
O196       Cd201   2.478   1_565  S
C197        O206   1.264       .  A
C197        O202   1.267       .  A
C197        C474   1.485       .  S
O198        C204   1.266       .  A
O198       Cd201   2.468       .  S
C199        O207   1.264   1_565  A
C199        C747   1.484       .  S
C200        O205   1.266       .  A
C200        O203   1.264       .  A
C200        C414   1.480       .  S
Cd201       O208   2.459       .  S
Cd201       O207   2.472       .  S
Cd201       O206   2.477       .  S
Cd201       O202   2.480       .  S
Cd201       O205   2.480   1_545  S
Cd201       O203   2.460   1_545  S
C204        O208   1.264       .  A
C204        C404   1.480       .  S
O209        C212   1.267       .  A
O209       Cd214   2.490       .  S
C210        O219   1.267       .  A
C210        O215   1.265       .  A
C210        C617   1.491       .  S
O211        C217   1.265       .  A
O211       Cd214   2.463       .  S
C212        O220   1.264       .  A
C212        C437   1.486       .  S
C213        O218   1.266       .  A
C213        O216   1.263       .  A
C213        C417   1.485       .  S
Cd214       O221   2.501       .  S
Cd214       O220   2.465       .  S
Cd214       O219   2.505   1_455  S
Cd214       O215   2.478   1_455  S
Cd214       O218   2.495   1_455  S
Cd214       O216   2.466   1_455  S
C217        O221   1.266       .  A
C217        C397   1.486       .  S
O222        C225   1.267       .  A
O222       Cd227   2.474       .  S
C223        O232   1.267       .  A
C223        O228   1.265       .  A
C223        C777   1.487       .  S
O224        C230   1.267       .  A
O224       Cd227   2.472       .  S
C225        O233   1.264       .  A
C225        C377   1.481       .  S
C226        O231   1.268       .  A
C226        O229   1.264       .  A
C226        C384   1.485       .  S
Cd227       O234   2.487       .  S
Cd227       O233   2.465       .  S
Cd227       O232   2.490       .  S
Cd227       O228   2.463       .  S
Cd227       O231   2.495       .  S
Cd227       O229   2.460       .  S
C230        O234   1.265       .  A
C230        C394   1.488       .  S
O235        C238   1.266       .  A
O235       Cd240   2.501       .  S
C236        O245   1.265       .  A
C236        O241   1.266       .  A
C236        C787   1.488       .  S
O237        C243   1.267       .  A
O237       Cd240   2.500       .  S
C238        O246   1.265       .  A
C238        C367   1.488       .  S
C239        O244   1.266       .  A
C239        O242   1.265       .  A
C239        C357   1.491       .  S
Cd240       O247   2.479       .  S
Cd240       O246   2.491       .  S
Cd240       O245   2.488       .  S
Cd240       O241   2.487       .  S
Cd240       O244   2.516       .  S
Cd240       O242   2.478       .  S
C243        O247   1.264       .  A
C243        C664   1.491       .  S
O248        C251   1.267       .  A
O248       Cd253   2.486   1_554  S
C249        O258   1.267       .  A
C249        O254   1.265       .  A
C249        C364   1.487       .  S
O250        C256   1.267       .  A
O250       Cd253   2.487   1_554  S
C251        O259   1.264       .  A
C251        C374   1.483       .  S
C252        O257   1.266       .  A
C252        O255   1.262       .  A
C252        C457   1.480       .  S
Cd253       O260   2.456   1_556  S
Cd253       O259   2.451   1_556  S
Cd253       O258   2.492       .  S
Cd253       O254   2.466       .  S
Cd253       O257   2.492       .  S
Cd253       O255   2.448       .  S
C256        O260   1.264       .  A
C256        C537   1.483       .  S
O261        C264   1.268       .  A
O261       Cd266   2.498       .  S
C262        O271   1.267       .  A
C262        O267   1.264       .  A
C262        C347   1.489       .  S
O263        C269   1.265       .  A
O263       Cd266   2.476       .  S
C264        O272   1.262       .  A
C264        C334   1.488       .  S
C265        O270   1.266       .  A
C265        O268   1.264       .  A
C265        C424   1.484       .  S
Cd266       O273   2.471       .  S
Cd266       O272   2.469       .  S
Cd266       O271   2.503       .  S
Cd266       O267   2.473       .  S
Cd266       O270   2.489       .  S
Cd266       O268   2.464       .  S
C269        O273   1.265       .  A
C269        C494   1.481       .  S
O274        C277   1.266       .  A
O274       Cd279   2.498       .  S
C275        O284   1.264       .  A
C275        O280   1.267       .  A
C275        C324   1.482       .  S
O276        C282   1.267       .  A
O276       Cd279   2.490       .  S
C277        O285   1.264       .  A
C277        C344   1.487       .  S
C278        O283   1.266       .  A
C278        O281   1.264       .  A
C278        C407   1.480       .  S
Cd279       O286   2.464       .  S
Cd279       O285   2.473       .  S
Cd279       O284   2.462   1_455  S
Cd279       O280   2.480   1_455  S
Cd279       O283   2.479   1_455  S
Cd279       O281   2.455   1_455  S
C282        O286   1.264       .  A
C282        C387   1.484       .  S
O287        C290   1.267       .  A
O287       Cd292   2.479       .  S
C288        O297   1.266       .  A
C288        O293   1.265       .  A
C288        C327   1.480       .  S
O289        C295   1.266       .  A
O289       Cd292   2.483       .  S
C290        O298   1.265       .  A
C290        C314   1.484       .  S
C291        O296   1.265       .  A
C291        O294   1.267       .  A
C291        C587   1.486       .  S
Cd292       O299   2.470       .  S
Cd292       O298   2.456       .  S
Cd292       O297   2.473       .  S
Cd292       O293   2.460       .  S
Cd292       O296   2.472       .  S
Cd292       O294   2.489       .  S
C295        O299   1.263       .  A
C295        C554   1.484       .  S
O300        C303   1.265       .  A
O300       Cd305   2.467       .  S
C301        O310   1.266       .  A
C301        O306   1.264       .  A
C301        C337   1.488       .  S
O302        C308   1.267       .  A
O302       Cd305   2.499       .  S
C303        O311   1.264       .  A
C303        C317   1.478       .  S
C304        O309   1.267       .  A
C304        O307   1.264       .  A
C304        C354   1.491       .  S
Cd305       O312   2.470       .  S
Cd305       O311   2.482       .  S
Cd305       O310   2.502       .  S
Cd305       O306   2.470       .  S
Cd305       O309   2.494       .  S
Cd305       O307   2.494       .  S
C308        O312   1.265       .  A
C308        C637   1.489       .  S
C313        C314   1.407       .  A
C313        C318   1.401       .  A
C313        H320   1.083       .  S
C314        C315   1.409       .  A
C315        C316   1.397       .  A
C315        F322   1.357       .  S
C316        C317   1.403       .  A
C316        H321   1.083       .  S
C317        C318   1.407       .  A
C318        F319   1.357       .  S
C323        C324   1.405       .  A
C323        C328   1.399       .  A
C323        H330   1.083       .  S
C324        C325   1.409       .  A
C325        C326   1.399       .  A
C325        F332   1.357       .  S
C326        C327   1.404       .  A
C326        H331   1.083       .  S
C327        C328   1.408       .  A
C328        F329   1.357       .  S
C333        C334   1.404       .  A
C333        C338   1.400       .  A
C333        H340   1.083       .  S
C334        C335   1.412       .  A
C335        C336   1.402       .  A
C335        F342   1.358       .  S
C336        C337   1.406       .  A
C336        H341   1.083       .  S
C337        C338   1.409       .  A
C338        F339   1.357       .  S
C343        C344   1.407       .  A
C343        C348   1.401       .  A
C343        H350   1.083       .  S
C344        C345   1.408       .  A
C345        C346   1.402       .  A
C345        F352   1.357       .  S
C346        C347   1.408       .  A
C346        H351   1.083       .  S
C347        C348   1.408       .  A
C348        F349   1.357       .  S
C353        C354   1.409       .  A
C353        C358   1.406       .  A
C353        H360   1.083       .  S
C354        C355   1.407       .  A
C355        C356   1.400       .  A
C355        F362   1.357       .  S
C356        C357   1.406       .  A
C356        H361   1.083       .  S
C357        C358   1.410       .  A
C358        F359   1.358       .  S
C363        C364   1.406       .  A
C363        C368   1.401       .  A
C363        H370   1.083       .  S
C364        C365   1.408       .  A
C365        C366   1.402       .  A
C365        F372   1.357       .  S
C366        C367   1.407       .  A
C366        H371   1.083       .  S
C367        C368   1.408       .  A
C368        F369   1.357       .  S
C373        C374   1.405       .  A
C373        C378   1.401       .  A
C373        H380   1.083       .  S
C374        C375   1.409       .  A
C375        C376   1.397       .  A
C375        F382   1.357       .  S
C376        C377   1.403       .  A
C376        H381   1.083       .  S
C377        C378   1.409       .  A
C378        F379   1.358       .  S
C383        C384   1.405       .  A
C383        C388   1.400       .  A
C383        H390   1.083       .  S
C384        C385   1.410       .  A
C385        C386   1.400       .  A
C385        F392   1.358       .  S
C386        C387   1.404       .  A
C386        H391   1.083       .  S
C387        C388   1.409       .  A
C388        F389   1.357   1_455  S
C393        C394   1.405       .  A
C393        C398   1.398       .  A
C393        H400   1.083       .  S
C394        C395   1.411       .  A
C395        C396   1.404       .  A
C395        F402   1.358       .  S
C396        C397   1.407       .  A
C396        H401   1.083       .  S
C397        C398   1.407       .  A
C398        F399   1.357   1_455  S
C403        C404   1.406       .  A
C403        C408   1.399       .  A
C403        H410   1.083       .  S
C404        C405   1.407       .  A
C405        C406   1.397       .  A
C405        F412   1.357       .  S
C406        C407   1.405       .  A
C406        H411   1.083       .  S
C407        C408   1.408       .  A
C408        F409   1.357       .  S
C413        C414   1.404       .  A
C413        C418   1.399       .  A
C413        H420   1.083       .  S
C414        C415   1.408       .  A
C415        C416   1.400       .  A
C415        F422   1.357       .  S
C416        C417   1.406       .  A
C416        H421   1.083       .  S
C417        C418   1.410       .  A
C418        F419   1.357       .  S
C423        C424   1.406       .  A
C423        C428   1.399       .  A
C423        H430   1.083       .  S
C424        C425   1.408       .  A
C425        C426   1.400       .  A
C425        F432   1.357       .  S
C426        C427   1.406       .  A
C426        H431   1.083       .  S
C427        C428   1.408       .  A
C428        F429   1.357       .  S
C433        C434   1.405       .  A
C433        C438   1.400       .  A
C433        H440   1.083       .  S
C434        C435   1.409       .  A
C435        C436   1.400       .  A
C435        F442   1.357       .  S
C436        C437   1.405       .  A
C436        H441   1.083       .  S
C437        C438   1.410       .  A
C438        F439   1.357       .  S
C443        C444   1.406       .  A
C443        C448   1.399       .  A
C443        H450   1.083       .  S
C444        C445   1.408       .  A
C445        C446   1.399       .  A
C445        F452   1.357       .  S
C446        C447   1.406       .  A
C446        H451   1.083   1_565  S
C447        C448   1.407       .  A
C448        F449   1.358       .  S
C453        C454   1.404       .  A
C453        C458   1.397       .  A
C453        H460   1.083       .  S
C454        C455   1.410       .  A
C455        C456   1.399       .  A
C455        F462   1.358       .  S
C456        C457   1.404       .  A
C456        H461   1.083       .  S
C457        C458   1.409       .  A
C458        F459   1.357       .  S
C463        C464   1.405       .  A
C463        C468   1.400       .  A
C463        H470   1.083       .  S
C464        C465   1.409       .  A
C465        C466   1.399       .  A
C465        F472   1.357   1_455  S
C466        C467   1.405       .  A
C466        H471   1.083       .  S
C467        C468   1.409       .  A
C468        F469   1.357       .  S
C473        C474   1.404       .  A
C473        C478   1.398       .  A
C473        H480   1.083       .  S
C474        C475   1.410       .  A
C475        C476   1.403       .  A
C475        F482   1.358       .  S
C476        C477   1.407       .  A
C476        H481   1.083       .  S
C477        C478   1.410       .  A
C478        F479   1.357       .  S
C483        C484   1.404       .  A
C483        C488   1.400       .  A
C483        H490   1.083       .  S
C484        C485   1.408       .  A
C485        C486   1.400       .  A
C485        F492   1.357       .  S
C486        C487   1.405       .  A
C486        H491   1.083       .  S
C487        C488   1.410       .  A
C488        F489   1.358   1_556  S
C493        C494   1.405       .  A
C493        C498   1.401       .  A
C493        H500   1.083       .  S
C494        C495   1.407       .  A
C495        C496   1.399       .  A
C495        F502   1.358       .  S
C496        C497   1.407       .  A
C496        H501   1.083       .  S
C497        C498   1.409       .  A
C498        F499   1.357       .  S
C503        C504   1.405       .  A
C503        C508   1.402       .  A
C503        H510   1.083       .  S
C504        C505   1.408       .  A
C505        C506   1.401       .  A
C505        F512   1.357   1_565  S
C506        C507   1.406       .  A
C506        H511   1.083       .  S
C507        C508   1.410       .  A
C508        F509   1.357       .  S
C513        C514   1.405       .  A
C513        C518   1.403       .  A
C513        H520   1.083       .  S
C514        C515   1.410       .  A
C515        C516   1.402       .  A
C515        F522   1.357       .  S
C516        C517   1.406       .  A
C516        H521   1.083       .  S
C517        C518   1.411       .  A
C518        F519   1.357       .  S
C523        C524   1.405       .  A
C523        C528   1.401       .  A
C523        H530   1.083       .  S
C524        C525   1.410       .  A
C525        C526   1.403       .  A
C525        F532   1.357       .  S
C526        C527   1.406       .  A
C526        H531   1.083       .  S
C527        C528   1.411       .  A
C528        F529   1.357       .  S
C533        C534   1.405       .  A
C533        C538   1.399       .  A
C533        H540   1.083       .  S
C534        C535   1.411       .  A
C535        C536   1.400       .  A
C535        F542   1.358       .  S
C536        C537   1.405       .  A
C536        H541   1.083       .  S
C537        C538   1.409       .  A
C538        F539   1.357   1_554  S
C543        C544   1.407       .  A
C543        C548   1.404       .  A
C543        H550   1.083   1_554  S
C544        C545   1.406       .  A
C545        C546   1.397       .  A
C545        F552   1.357       .  S
C546        C547   1.407       .  A
C546        H551   1.083       .  S
C547        C548   1.409       .  A
C548        F549   1.357       .  S
C553        C554   1.404       .  A
C553        C558   1.398       .  A
C553        H560   1.083       .  S
C554        C555   1.410       .  A
C555        C556   1.400       .  A
C555        F562   1.357       .  S
C556        C557   1.405       .  A
C556        H561   1.083       .  S
C557        C558   1.408       .  A
C558        F559   1.357       .  S
C563        C564   1.407       .  A
C563        C568   1.400       .  A
C563        H570   1.083       .  S
C564        C565   1.409       .  A
C565        C566   1.401       .  A
C565        F572   1.357       .  S
C566        C567   1.407       .  A
C566        H571   1.083       .  S
C567        C568   1.408       .  A
C568        F569   1.357       .  S
C573        C574   1.407       .  A
C573        C578   1.402       .  A
C573        H580   1.083       .  S
C574        C575   1.407       .  A
C575        C576   1.398       .  A
C575        F582   1.357       .  S
C576        C577   1.406       .  A
C576        H581   1.083       .  S
C577        C578   1.409       .  A
C578        F579   1.357       .  S
C583        C584   1.404       .  A
C583        C588   1.400       .  A
C583        H590   1.083       .  S
C584        C585   1.408       .  A
C585        C586   1.401       .  A
C585        F592   1.358       .  S
C586        C587   1.406       .  A
C586        H591   1.083       .  S
C587        C588   1.409       .  A
C588        F589   1.357       .  S
C593        C594   1.407       .  A
C593        C598   1.403       .  A
C593        H600   1.083       .  S
C594        C595   1.410       .  A
C595        C596   1.396       .  A
C595        F602   1.357       .  S
C596        C597   1.402       .  A
C596        H601   1.083       .  S
C597        C598   1.409       .  A
C598        F599   1.358   1_655  S
C603        C604   1.407       .  A
C603        C608   1.398       .  A
C603        H610   1.083       .  S
C604        C605   1.408       .  A
C605        C606   1.401       .  A
C605        F612   1.357       .  S
C606        C607   1.406       .  A
C606        H611   1.083       .  S
C607        C608   1.407       .  A
C608        F609   1.357       .  S
C613        C614   1.406       .  A
C613        C618   1.403       .  A
C613        H620   1.083       .  S
C614        C615   1.407       .  A
C615        C616   1.401       .  A
C615        F622   1.358       .  S
C616        C617   1.408       .  A
C616        H621   1.083       .  S
C617        C618   1.410       .  A
C618        F619   1.357       .  S
C623        C624   1.405       .  A
C623        C628   1.400       .  A
C623        H630   1.083       .  S
C624        C625   1.409       .  A
C625        C626   1.399       .  A
C625        F632   1.357       .  S
C626        C627   1.405       .  A
C626        H631   1.083       .  S
C627        C628   1.408       .  A
C628        F629   1.357       .  S
C633        C634   1.406       .  A
C633        C638   1.402       .  A
C633        H640   1.083       .  S
C634        C635   1.407       .  A
C635        C636   1.401       .  A
C635        F642   1.357       .  S
C636        C637   1.407       .  A
C636        H641   1.083       .  S
C637        C638   1.409       .  A
C638        F639   1.357       .  S
C643        C644   1.407       .  A
C643        C648   1.403       .  A
C643        H650   1.083       .  S
C644        C645   1.407       .  A
C645        C646   1.399       .  A
C645        F652   1.357       .  S
C646        C647   1.407       .  A
C646        H651   1.083       .  S
C647        C648   1.409       .  A
C648        F649   1.357       .  S
C653        C654   1.405       .  A
C653        C658   1.401       .  A
C653        H660   1.083       .  S
C654        C655   1.410       .  A
C655        C656   1.401       .  A
C655        F662   1.357       .  S
C656        C657   1.405       .  A
C656        H661   1.083       .  S
C657        C658   1.410       .  A
C658        F659   1.357       .  S
C663        C664   1.408       .  A
C663        C668   1.403       .  A
C663        H670   1.083       .  S
C664        C665   1.408       .  A
C665        C666   1.402       .  A
C665        F672   1.357       .  S
C666        C667   1.407       .  A
C666        H671   1.083       .  S
C667        C668   1.408       .  A
C668        F669   1.357       .  S
C673        C674   1.408       .  A
C673        C678   1.402       .  A
C673        H680   1.083       .  S
C674        C675   1.409       .  A
C675        C676   1.402       .  A
C675        F682   1.357       .  S
C676        C677   1.406       .  A
C676        H681   1.083       .  S
C677        C678   1.408       .  A
C678        F679   1.357       .  S
C683        C684   1.406       .  A
C683        C688   1.400       .  A
C683        H690   1.083       .  S
C684        C685   1.410       .  A
C685        C686   1.403       .  A
C685        F692   1.357       .  S
C686        C687   1.406       .  A
C686        H691   1.083       .  S
C687        C688   1.407       .  A
C688        F689   1.357       .  S
C693        C694   1.405       .  A
C693        C698   1.400       .  A
C693        H700   1.083       .  S
C694        C695   1.409       .  A
C695        C696   1.398       .  A
C695        F702   1.357       .  S
C696        C697   1.404       .  A
C696        H701   1.083       .  S
C697        C698   1.409       .  A
C698        F699   1.357       .  S
C703        C704   1.405       .  A
C703        C708   1.400       .  A
C703        H710   1.083       .  S
C704        C705   1.408       .  A
C705        C706   1.400       .  A
C705        F712   1.357   1_455  S
C706        C707   1.405       .  A
C706        H711   1.083       .  S
C707        C708   1.410       .  A
C708        F709   1.358       .  S
C713        C714   1.406       .  A
C713        C718   1.401       .  A
C713        H720   1.083       .  S
C714        C715   1.407       .  A
C715        C716   1.398       .  A
C715        F722   1.358       .  S
C716        C717   1.407       .  A
C716        H721   1.083       .  S
C717        C718   1.408       .  A
C718        F719   1.357       .  S
C723        C724   1.407       .  A
C723        C728   1.399       .  A
C723        H730   1.083       .  S
C724        C725   1.409       .  A
C725        C726   1.403       .  A
C725        F732   1.357       .  S
C726        C727   1.408       .  A
C726        H731   1.083       .  S
C727        C728   1.407       .  A
C728        F729   1.357       .  S
C733        C734   1.406       .  A
C733        C738   1.402       .  A
C733        H740   1.083       .  S
C734        C735   1.410       .  A
C735        C736   1.399       .  A
C735        F742   1.357       .  S
C736        C737   1.404       .  A
C736        H741   1.083       .  S
C737        C738   1.410       .  A
C738        F739   1.357       .  S
C743        C744   1.406       .  A
C743        C748   1.401       .  A
C743        H750   1.083       .  S
C744        C745   1.409       .  A
C745        C746   1.398       .  A
C745        F752   1.357       .  S
C746        C747   1.404       .  A
C746        H751   1.083       .  S
C747        C748   1.410       .  A
C748        F749   1.358   1_565  S
C753        C754   1.404       .  A
C753        C758   1.399       .  A
C753        H760   1.083       .  S
C754        C755   1.410       .  A
C755        C756   1.403       .  A
C755        F762   1.357       .  S
C756        C757   1.406       .  A
C756        H761   1.083       .  S
C757        C758   1.410       .  A
C758        F759   1.357       .  S
C763        C764   1.405       .  A
C763        C768   1.401       .  A
C763        H770   1.083       .  S
C764        C765   1.407       .  A
C765        C766   1.400       .  A
C765        F772   1.358       .  S
C766        C767   1.407       .  A
C766        H771   1.083       .  S
C767        C768   1.409       .  A
C768        F769   1.357       .  S
C773        C774   1.406       .  A
C773        C778   1.402       .  A
C773        H780   1.083       .  S
C774        C775   1.408       .  A
C775        C776   1.399       .  A
C775        F782   1.358       .  S
C776        C777   1.407       .  A
C776        H781   1.083       .  S
C777        C778   1.409       .  A
C778        F779   1.357       .  S
C783        C784   1.406       .  A
C783        C788   1.403       .  A
C783        H790   1.083       .  S
C784        C785   1.409       .  A
C785        C786   1.400       .  A
C785        F792   1.357       .  S
C786        C787   1.406       .  A
C786        H791   1.083       .  S
C787        C788   1.410       .  A
C788        F789   1.357       .  S
