geometry optimzed in LAMMPS
_audit_creation_date              2020-11-30 
_audit_creation_method            'lammps2cif' 
_symmetry_space_group_name_H-M    'P1' 
_symmetry_Int_Tables_number       1 
_symmetry_cell_setting            triclinic 
loop_ 
_symmetry_equiv_pos_as_xyz 
  x,y,z 
_cell_length_a                    50.88198212135183 
_cell_length_b                    49.44048142983127 
_cell_length_c                    50.10720925653205 
_cell_angle_alpha                 90.15071837174878 
_cell_angle_beta                  90.54534730126464 
_cell_angle_gamma                 89.9208605306699 
loop_ 
_atom_site_label 
_atom_site_type_symbol 
_atom_site_fract_x 
_atom_site_fract_y 
_atom_site_fract_z 
_atom_site_charge 
N1          N  0.16395127  0.21608709  0.02678060    -0.06280
N2          N  0.18477997  0.20127849  0.03378818    -0.58400
N3          N  0.13234646  0.20209530  0.47148392    -0.05960
N4          N  0.13314412  0.17912636  0.45871251    -0.60530
N5          N  0.15419641  0.21589815  0.46843911    -0.05560
N6          N  0.17086115  0.20074513  0.45441196    -0.58380
N7          N  0.14243861  0.20197764  0.03132058    -0.05240
N8          N  0.14806181  0.17885094  0.04268895    -0.60880
C9          C  0.17429700  0.17811019  0.04385259     0.95900
C10         C  0.15698400  0.17778385  0.44812987     0.95670
N11         N  0.05633221  0.22430913  0.48071659    -0.06470
N12         N  0.04351617  0.22679718  0.45770567    -0.58980
N13         N  0.08377512  0.20542211  0.04104031    -0.04590
N14         N  0.08900515  0.19339896  0.06396462    -0.60230
N15         N  0.06573834  0.22411128  0.04384450    -0.06500
N16         N  0.05840511  0.22535847  0.06901208    -0.59250
N17         N  0.07439720  0.20550794  0.47869384    -0.04230
N18         N  0.07440760  0.19501770  0.45445368    -0.60320
Mn19       Mn  0.10778709  0.20365741  0.00589098     1.18440
C20         C  0.05507197  0.20836932  0.44158541     0.97980
C21         C  0.07319920  0.20623161  0.08124526     0.98640
N22         N  0.15669245  0.28491131  0.46844529    -0.06520
N23         N  0.17418442  0.29727503  0.45304567    -0.62820
N24         N  0.14640534  0.30083714  0.03157434    -0.05320
N25         N  0.15424532  0.32394482  0.04170120    -0.63500
N26         N  0.16666474  0.28484615  0.02654844    -0.06020
N27         N  0.18876906  0.29818784  0.03214430    -0.63090
N28         N  0.13652192  0.30126834  0.47199207    -0.04920
N29         N  0.13903563  0.32343701  0.45815689    -0.63780
Mn30       Mn  0.16163217  0.25036920  0.49729271     1.10660
C31         C  0.16232711  0.32118283  0.44633602     0.99200
C32         C  0.18046744  0.32248878  0.04177897     0.99280
N33         N  0.06698532  0.28514777  0.04464023    -0.06030
N34         N  0.05902112  0.28445072  0.06978735    -0.61400
N35         N  0.07822992  0.30271230  0.47877052    -0.05350
N36         N  0.07974089  0.31229972  0.45422454    -0.58130
N37         N  0.05868692  0.28557851  0.48068426    -0.06660
N38         N  0.04639677  0.28343207  0.45731682    -0.60970
N39         N  0.08663317  0.30202932  0.04235645    -0.05650
N40         N  0.09230624  0.31309290  0.06574673    -0.58160
Mn41       Mn  0.06038166  0.25488603  0.01265187     1.20190
Mn42       Mn  0.11142707  0.30196773  0.50657099     1.10090
Cl43       Cl  0.11100518  0.25276501  0.00565786    -0.86130
C44         C  0.07487604  0.30222282  0.08294774     0.96210
C45         C  0.05982551  0.30017437  0.44102707     0.96000
N46         N  0.44114853  0.22658580  0.03522481    -0.06280
N47         N  0.45064291  0.23030574  0.05966388    -0.58400
N48         N  0.42321874  0.20539578  0.47207770    -0.05960
N49         N  0.41913946  0.19354953  0.44883822    -0.60530
N50         N  0.44013580  0.22523559  0.46987287    -0.05560
N51         N  0.44734585  0.22749251  0.44446592    -0.58380
N52         N  0.42317205  0.20763131  0.03557263    -0.05240
N53         N  0.42000720  0.19824578  0.06002492    -0.60880
C54         C  0.43731951  0.21246460  0.07493532     0.95900
C55         C  0.43424928  0.20721353  0.43165226     0.95670
N56         N  0.34166002  0.21357288  0.47414995    -0.06470
N57         N  0.32277878  0.19653017  0.46616450    -0.58980
N58         N  0.36422405  0.20196705  0.03344945    -0.04590
N59         N  0.36151652  0.17920775  0.04632373    -0.60230
N60         N  0.34204621  0.21578926  0.03280389    -0.06500
N61         N  0.32343752  0.20116002  0.04462009    -0.59250
N62         N  0.36434724  0.20074162  0.47310006    -0.04230
N63         N  0.36145950  0.17662231  0.46288193    -0.60320
Mn64       Mn  0.39435818  0.20397531  0.00363451     1.18440
C65         C  0.33573689  0.17336066  0.45894526     0.97980
C66         C  0.33634996  0.17855332  0.05355577     0.98640
N67         N  0.43924100  0.28643923  0.47021678    -0.06520
N68         N  0.45087413  0.28612215  0.44667477    -0.62820
N69         N  0.41783011  0.30460971  0.03293094    -0.05320
N70         N  0.41439026  0.31597981  0.05656040    -0.63500
N71         N  0.43787528  0.28793920  0.03363494    -0.06020
N72         N  0.44828177  0.28780807  0.05792164    -0.63090
N73         N  0.41945114  0.30329994  0.46985994    -0.04920
N74         N  0.41739964  0.31485416  0.44626188    -0.63780
Mn75       Mn  0.44128782  0.25637788  0.00219863     1.10660
C76         C  0.43714896  0.30420582  0.43169635     0.99200
C77         C  0.43369466  0.30560453  0.07224442     0.99280
N78         N  0.33784716  0.28469852  0.03030336    -0.06030
N79         N  0.31736128  0.29611779  0.04233164    -0.61400
N80         N  0.35976806  0.29832679  0.46903082    -0.05350
N81         N  0.35441617  0.32105935  0.45689518    -0.58130
N82         N  0.33841694  0.28338982  0.47183430    -0.06660
N83         N  0.31777718  0.29787549  0.46359210    -0.60970
N84         N  0.35743382  0.30218306  0.02955918    -0.05650
N85         N  0.35120757  0.32470709  0.04177193    -0.58160
Mn86       Mn  0.33885467  0.24937146  0.00225833     1.20190
Mn87       Mn  0.38889935  0.30229655  0.00039849     1.10090
Cl88       Cl  0.39052982  0.25306716  0.00220154    -0.86130
C89         C  0.32647278  0.32096891  0.04963625     0.96210
C90         C  0.32837350  0.32132780  0.45424097     0.96000
N91         N  0.22502379  0.03473420  0.08774591    -0.06280
N92         N  0.21707950  0.04929595  0.06682778    -0.58400
N93         N  0.28137799  0.05122919  0.11131903    -0.05960
N94         N  0.29392923  0.07386411  0.10707628    -0.60530
N95         N  0.28277397  0.03494451  0.09045276    -0.05560
N96         N  0.29553686  0.04749322  0.07096844    -0.58380
N97         N  0.22215462  0.04953518  0.10958318    -0.05240
N98         N  0.21103554  0.07278452  0.10413718    -0.60880
C99         C  0.20831145  0.07295333  0.07764409     0.95900
C100        C  0.30274197  0.07154717  0.08217434     0.95670
N101        N  0.28316568  0.03136983  0.18998623    -0.06470
N102        N  0.30736380  0.03025573  0.19991867    -0.58980
N103        N  0.21994032  0.04972663  0.17077290    -0.04590
N104        N  0.19690495  0.06209134  0.16925661    -0.60230
N105        N  0.22006096  0.03170782  0.18982352    -0.06500
N106        N  0.19682640  0.03137892  0.20142151    -0.59250
N107        N  0.28179705  0.05032200  0.17180023    -0.04230
N108        N  0.30463222  0.06261877  0.16942103    -0.60320
Mn109      Mn  0.25109785  0.05029696  0.14134171     1.18440
C110        C  0.32055105  0.05035554  0.18734276     0.97980
C111        C  0.18238145  0.05066436  0.18868016     0.98640
N112        N  0.28349970  0.46545456  0.09112887    -0.06520
N113        N  0.29552904  0.45089279  0.07232399    -0.62820
N114        N  0.22337052  0.45047426  0.10874162    -0.05320
N115        N  0.21444293  0.42640676  0.10245166    -0.63500
N116        N  0.22613027  0.46551996  0.08715379    -0.06020
N117        N  0.22044128  0.45055934  0.06575262    -0.63090
N118        N  0.28261440  0.45084213  0.11306099    -0.04920
N119        N  0.29501062  0.42798585  0.11027654    -0.63120
Mn120      Mn  0.25449001  0.00021016  0.08799383     1.10660
C121        C  0.30314778  0.42763834  0.08513207     0.99200
C122        C  0.21316295  0.42620452  0.07581480     0.99280
N123        N  0.21972256  0.47023567  0.18909132    -0.06030
N124        N  0.19608513  0.47176328  0.19959405    -0.61400
N125        N  0.28164709  0.45053258  0.17254573    -0.05350
N126        N  0.30426914  0.43750210  0.17094651    -0.58130
N127        N  0.28256851  0.46901061  0.19127713    -0.06660
N128        N  0.30607940  0.46883112  0.20292340    -0.60970
N129        N  0.21967640  0.45219069  0.16989513    -0.05650
N130        N  0.19625690  0.44090284  0.16710059    -0.58160
Mn131      Mn  0.25156594  0.50060948  0.19158623     1.20190
Mn132      Mn  0.25150090  0.45113880  0.14150259     1.10090
Cl133      Cl  0.25215897  0.50063285  0.13997767    -0.86130
C134        C  0.18165232  0.45315981  0.18595317     0.96210
C135        C  0.31930360  0.44872280  0.19024842     0.96000
N136        N  0.21497722  0.03036739  0.31522970    -0.06280
N137        N  0.19137980  0.03016453  0.30366981    -0.58400
N138        N  0.27774059  0.05066418  0.33546321    -0.05960
N139        N  0.30040871  0.06369085  0.33724836    -0.60530
N140        N  0.27810374  0.03275782  0.31610599    -0.05560
N141        N  0.30138073  0.03316659  0.30462646    -0.58380
N142        N  0.21588353  0.04929154  0.33355968    -0.05240
N143        N  0.19325208  0.06233810  0.33474495    -0.60880
C144        C  0.17800320  0.05059397  0.31583700     0.95900
C145        C  0.31516177  0.05286147  0.31761316     0.95670
N146        N  0.27493060  0.03366675  0.41789127    -0.06470
N147        N  0.28694213  0.04461715  0.43893508    -0.58980
N148        N  0.21560813  0.04793385  0.39301998    -0.04590
N149        N  0.20252856  0.07039626  0.39604911    -0.60230
N150        N  0.21671358  0.03369961  0.41524410    -0.06500
N151        N  0.20561861  0.04829582  0.43457713    -0.59250
N152        N  0.27485785  0.05095428  0.39781624    -0.04230
N153        N  0.28712344  0.07332969  0.40465249    -0.60320
Mn154      Mn  0.24636189  0.04983415  0.36464450     1.18440
C155        C  0.29470143  0.06920013  0.43004244     0.97980
C156        C  0.19673317  0.07102785  0.42178024     0.98640
N157        N  0.28071237  0.47094139  0.31526860    -0.06520
N158        N  0.30409468  0.47262758  0.30392406    -0.62820
N159        N  0.22017158  0.44808695  0.33428134    -0.05320
N160        N  0.19849219  0.43365680  0.33677511    -0.63500
N161        N  0.21736476  0.46696368  0.31613058    -0.06020
N162        N  0.19315869  0.46575289  0.30619864    -0.63090
N163        N  0.28131201  0.45243811  0.33394719    -0.04920
N164        N  0.30462509  0.44083594  0.33547488    -0.63780
Mn165      Mn  0.24752999  0.00023144  0.31400813     1.10660
C166        C  0.31861866  0.45334551  0.31648386     0.99200
C167        C  0.18179765  0.44437442  0.31874681     0.99280
N168        N  0.21898019  0.46412869  0.41507640    -0.06030
N169        N  0.20558409  0.45138620  0.43401418    -0.61400
N170        N  0.28084642  0.45243364  0.39466330    -0.05350
N171        N  0.29321683  0.42967684  0.39917485    -0.58130
N172        N  0.27699442  0.46596075  0.41704986    -0.06660
N173        N  0.28517344  0.45078467  0.43742507    -0.60970
N174        N  0.22118753  0.44798026  0.39422624    -0.05650
N175        N  0.20856123  0.42528704  0.39778989    -0.58160
Mn176      Mn  0.24667296  0.99939572  0.41746934     1.20190
Mn177      Mn  0.25105964  0.45029262  0.36395176     1.10090
Cl178      Cl  0.24789424  0.99998189  0.36521258    -0.86130
C179        C  0.19884576  0.42737787  0.42231845     0.96210
C180        C  0.29533965  0.42822702  0.42566148     0.96000
N181        N  0.03008009  0.17099738  0.22493272    -0.06280
N182        N  0.04268559  0.18998842  0.21115668    -0.58400
N183        N  0.47243432  0.15236354  0.20376078    -0.05960
N184        N  0.46015639  0.15828169  0.18128702    -0.60530
N185        N  0.47109847  0.17281715  0.22062617    -0.05560
N186        N  0.45865125  0.19341195  0.20896646    -0.58380
N187        N  0.03342821  0.14773087  0.21262999    -0.05240
N188        N  0.05047250  0.14967753  0.19345715    -0.60880
C189        C  0.05533437  0.17602735  0.19132164     0.95900
C190        C  0.45118495  0.18365273  0.18458423     0.95670
N191        N  0.46877830  0.06991710  0.22076941    -0.06470
N192        N  0.44589884  0.05758703  0.21862315    -0.58980
N193        N  0.03146789  0.08782859  0.20709705    -0.04590
N194        N  0.05427435  0.08825060  0.19471126    -0.60230
N195        N  0.03080062  0.06816780  0.22442871    -0.06500
N196        N  0.05333432  0.05475056  0.22403550    -0.59250
N197        N  0.47003763  0.08962091  0.20329983    -0.04230
N198        N  0.44819949  0.09095038  0.18883998    -0.60320
Mn199      Mn  0.00160123  0.11940071  0.20631956     1.18440
C200        C  0.43330512  0.07057924  0.19836936     0.97980
C201        C  0.06802465  0.06736115  0.20518653     0.98640
N202        N  0.46605666  0.17074987  0.28768038    -0.06520
N203        N  0.45208480  0.18989476  0.30011445    -0.62820
N204        N  0.02476801  0.14892109  0.30689090    -0.05320
N205        N  0.03547112  0.15336582  0.33038679    -0.63500
N206        N  0.02447497  0.17116189  0.29241135    -0.06020
N207        N  0.03351872  0.19157801  0.30727928    -0.63090
N208        N  0.46453418  0.14810462  0.30143332    -0.04920
N209        N  0.44850619  0.15081760  0.32142122    -0.63780
Mn210      Mn  0.49789371  0.17280101  0.25631512     1.10660
C211        C  0.44073343  0.17672217  0.32110728     0.99200
C212        C  0.04069906  0.17988171  0.33087696     0.99280
N213        N  0.02801227  0.06830890  0.28606426    -0.06030
N214        N  0.05157279  0.05705921  0.28644343    -0.61400
N215        N  0.46495086  0.08583025  0.30110338    -0.05350
N216        N  0.44248993  0.08492251  0.31411446    -0.58130
N217        N  0.46566681  0.06704366  0.28265155    -0.06660
N218        N  0.44347110  0.05305870  0.28265944    -0.60970
N219        N  0.02684176  0.08735989  0.30432766    -0.05650
N220        N  0.04947256  0.08944411  0.31741192    -0.58160
Mn221      Mn  0.99824073  0.06691723  0.25350565     1.20190
Mn222      Mn  0.99522061  0.11730348  0.30360750     1.10090
Cl223      Cl  0.99795467  0.11925486  0.25495532    -0.86130
C224        C  0.06472751  0.07022018  0.30624737     0.96210
C225        C  0.42915877  0.06414558  0.30272404     0.96000
N226        N  0.03243025  0.43985814  0.22563485    -0.06280
N227        N  0.05503759  0.45314426  0.22528617    -0.58400
N228        N  0.47080242  0.42053962  0.20480123    -0.05960
N229        N  0.44849158  0.41915517  0.19108834    -0.60530
N230        N  0.46943727  0.43899979  0.22365633    -0.05560
N231        N  0.44569751  0.45011254  0.22334241    -0.58380
N232        N  0.03237135  0.42110406  0.20710751    -0.05240
N233        N  0.05465926  0.42122598  0.19382925    -0.60880
C234        C  0.06873829  0.44148104  0.20506587     0.95900
C235        C  0.43306931  0.43812721  0.20238211     0.95670
N236        N  0.47239198  0.33694901  0.21904624    -0.06470
N237        N  0.45817849  0.31768412  0.20711636    -0.58980
N238        N  0.03229884  0.35929367  0.20704173    -0.04590
N239        N  0.04920110  0.35627654  0.18770621    -0.60230
N240        N  0.03240186  0.33816437  0.22308071    -0.06500
N241        N  0.04918371  0.31984837  0.21372081    -0.59250
N242        N  0.47258064  0.35849662  0.20358256    -0.04230
N243        N  0.45813814  0.35479742  0.18206892    -0.60320
Mn244      Mn  0.50199141  0.39005128  0.20534234     1.18440
C245        C  0.44890615  0.32956807  0.18424959     0.97980
C246        C  0.05996376  0.33189021  0.19184910     0.98640
N247        N  0.46834790  0.43890712  0.28538568    -0.06520
N248        N  0.44547177  0.45179083  0.28531665    -0.62820
N249        N  0.02938253  0.41824452  0.30613754    -0.05320
N250        N  0.05170295  0.41509025  0.31953337    -0.63500
N251        N  0.03142119  0.43723758  0.28802219    -0.06020
N252        N  0.05561840  0.44712389  0.28877216    -0.63090
N253        N  0.46795289  0.41920505  0.30283570    -0.04920
N254        N  0.44516669  0.41828115  0.31509003    -0.63780
Mn255      Mn  0.50050533  0.44033816  0.25574774     1.10660
C256        C  0.43130692  0.43879748  0.30419261     0.99200
C257        C  0.06794334  0.43353129  0.30893677     0.99280
N258        N  0.02787564  0.33541064  0.29081939    -0.06030
N259        N  0.03683343  0.31500081  0.30582028    -0.61400
N260        N  0.46811603  0.35683098  0.30163554    -0.05350
N261        N  0.45361348  0.35156573  0.32246154    -0.58130
N262        N  0.46974546  0.33545453  0.28591088    -0.06660
N263        N  0.45752219  0.31472928  0.29728404    -0.60970
N264        N  0.02866271  0.35767426  0.30531094    -0.05650
N265        N  0.03997806  0.35345769  0.32850069    -0.58160
Mn266      Mn  0.50072177  0.33516510  0.25444399     1.20190
Mn267      Mn  0.49831817  0.38829983  0.30396694     1.10090
Cl268      Cl  0.50034659  0.38827457  0.25484611    -0.86130
C269        C  0.04470818  0.32692205  0.32928007     0.96210
C270        C  0.44701319  0.32545932  0.31989464     0.96000
C271        C  0.34749417  0.44959600  0.31374029    -0.05500
C272        C  0.35783543  0.42382519  0.30791626    -0.02620
C273        C  0.38522279  0.42020359  0.30557496     0.02370
C274        C  0.40253118  0.44246578  0.30833555    -0.05500
C275        C  0.39237245  0.46752318  0.31691134    -0.02600
C276        C  0.36500591  0.47067756  0.32067151     0.02370
C277        C  0.34040877  0.40068379  0.30586889     0.37020
C278        C  0.41040304  0.48882387  0.32475520     0.37010
C279        C  0.35534186  0.49295714  0.33655816     0.35430
C280        C  0.39551324  0.39333116  0.30100390     0.35430
N281        N  0.34744956  0.00944698  0.35079880    -0.39390
N282        N  0.40380581  0.37187019  0.29735450    -0.39390
N283        N  0.42521842  0.00531756  0.33136215    -0.38830
N284        N  0.32654459  0.38217922  0.30454656    -0.38830
C285        C  0.15286393  0.43836549  0.31865333    -0.05500
C286        C  0.14165632  0.42009405  0.30007888    -0.02620
C287        C  0.11393817  0.41784270  0.29749811     0.02370
C288        C  0.09713721  0.43338958  0.31393817    -0.05500
C289        C  0.10845328  0.44862104  0.33498904    -0.02600
C290        C  0.13614312  0.45153162  0.33704162     0.02370
C291        C  0.15865254  0.40349689  0.28374820     0.37020
C292        C  0.09163836  0.46120105  0.35462292     0.37010
C293        C  0.14744912  0.46922192  0.35723342     0.35430
C294        C  0.10264015  0.39995236  0.27748704     0.35430
N295        N  0.15656248  0.48336568  0.37325852    -0.39390
N296        N  0.09357821  0.38574816  0.26148460    -0.39390
N297        N  0.07823453  0.47114556  0.37040310    -0.38830
N298        N  0.17224846  0.39017535  0.27078356    -0.38830
C299        C  0.34439274  0.05759773  0.31399224    -0.05500
C300        C  0.35652222  0.04843763  0.29042773    -0.02620
C301        C  0.38409957  0.04685706  0.28839228     0.02370
C302        C  0.40047923  0.05856016  0.30808668    -0.05500
C303        C  0.38874475  0.06679414  0.33228115    -0.02600
C304        C  0.36094763  0.06732123  0.33492120     0.02370
C305        C  0.34022363  0.04219322  0.26764682     0.37020
C306        C  0.40531993  0.07123448  0.35559857     0.37010
C307        C  0.34978821  0.07779001  0.35932431     0.35430
C308        C  0.39535625  0.02896696  0.26882540     0.35430
N309        N  0.34104548  0.08666689  0.37869103    -0.39390
N310        N  0.40487034  0.01317490  0.25489628    -0.39390
N311        N  0.41851429  0.07447807  0.37427986    -0.38830
N312        N  0.32527809  0.03827117  0.25064447    -0.38830
C313        C  0.09336814  0.06598575  0.31210996    -0.05500
C314        C  0.10339061  0.03957156  0.31135736    -0.02620
C315        C  0.13063123  0.03502877  0.30954102     0.02370
C316        C  0.14886802  0.05627183  0.31329443    -0.05500
C317        C  0.13871033  0.08276899  0.31713202    -0.02600
C318        C  0.11118982  0.08772564  0.31560207     0.02370
C319        C  0.08526254  0.01699934  0.31252949     0.37020
C320        C  0.15652389  0.10530049  0.32125161     0.37010
C321        C  0.10150982  0.11526235  0.31700973     0.35430
C322        C  0.13919545  0.00893242  0.30089407     0.35430
N323        N  0.09407172  0.13735909  0.31816754    -0.39390
N324        N  0.14523167  0.48845107  0.29187490    -0.39390
N325        N  0.17069133  0.12330853  0.32462798    -0.38830
N326        N  0.06987631  0.99984354  0.31321627    -0.38830
C327        C  0.34837369  0.44435851  0.19209787    -0.05500
C328        C  0.36525571  0.45549776  0.17266908    -0.02620
C329        C  0.39293009  0.45294258  0.17540411     0.02370
C330        C  0.40393214  0.43947944  0.19769167    -0.05500
C331        C  0.38698114  0.42558530  0.21500546    -0.02600
C332        C  0.35939101  0.42870763  0.21285320     0.02370
C333        C  0.35414080  0.47001109  0.15011473     0.37020
C334        C  0.39821483  0.40518283  0.23221669     0.37010
C335        C  0.34217687  0.41518178  0.23133602     0.35430
C336        C  0.41001973  0.46345515  0.15493243     0.35430
N337        N  0.32791886  0.40447184  0.24569123    -0.39390
N338        N  0.42367563  0.47177146  0.13854760    -0.39390
N339        N  0.40844667  0.38810270  0.24408849    -0.38830
N340        N  0.34520868  0.48152109  0.13209890    -0.38830
C341        C  0.15276398  0.44900301  0.18996503    -0.05500
C342        C  0.14254317  0.45248774  0.21567177    -0.02620
C343        C  0.11528726  0.45267915  0.21994635     0.02370
C344        C  0.09740716  0.44606009  0.19920965    -0.05500
C345        C  0.10768673  0.44126142  0.17335550    -0.02600
C346        C  0.13513086  0.44320611  0.16865834     0.02370
C347        C  0.16056246  0.45423576  0.23806645     0.37020
C348        C  0.09007036  0.43510861  0.15123797     0.37010
C349        C  0.14494067  0.43949652  0.14182355     0.35430
C350        C  0.10613848  0.46048807  0.24581489     0.35430
N351        N  0.15261366  0.43645881  0.12035016    -0.39390
N352        N  0.09950526  0.46783409  0.26651155    -0.39390
N353        N  0.07611172  0.43008169  0.13354386    -0.38830
N354        N  0.17628311  0.45524813  0.25478918    -0.38830
C355        C  0.40517158  0.06515098  0.19088888    -0.05500
C356        C  0.38784233  0.08565263  0.18197955    -0.02620
C357        C  0.36039361  0.08077118  0.18048433     0.02370
C358        C  0.34974561  0.05562912  0.18908372    -0.05500
C359        C  0.36760801  0.03520508  0.19741955    -0.02600
C360        C  0.39489387  0.03932041  0.19568654     0.02370
C361        C  0.39800913  0.11171766  0.17398461     0.37020
C362        C  0.35885572  0.01120676  0.21097797     0.37010
C363        C  0.41292276  0.01682537  0.19818188     0.35430
C364        C  0.34330415  0.10242181  0.17126973     0.35430
N365        N  0.42861768  0.00005214  0.20025448    -0.39390
N366        N  0.32988416  0.11978401  0.16375566    -0.39390
N367        N  0.35303157  0.99295472  0.22400595    -0.38830
N368        N  0.40599219  0.13245541  0.16719906    -0.38830
C369        C  0.15311637  0.05558143  0.19278695    -0.05500
C370        C  0.13786842  0.07172175  0.17492163    -0.02620
C371        C  0.11032026  0.07505018  0.17847444     0.02370
C372        C  0.09709865  0.06228832  0.19992966    -0.05500
C373        C  0.11234195  0.04587953  0.21729109    -0.02600
C374        C  0.13985387  0.04319985  0.21427930     0.02370
C375        C  0.15014799  0.08533641  0.15265592     0.37020
C376        C  0.09965149  0.03150236  0.23848989     0.37010
C377        C  0.15473627  0.02837326  0.23412993     0.35430
C378        C  0.09575467  0.09140907  0.15936590     0.35430
N379        N  0.16787706  0.01701432  0.24932737    -0.39390
N380        N  0.08435376  0.10453222  0.14403838    -0.39390
N381        N  0.08811612  0.02036746  0.25480675    -0.38830
N382        N  0.15962614  0.09640791  0.13484473    -0.38830
C383        C  0.31187039  0.34425128  0.06077299    -0.05500
C384        C  0.32066322  0.35338381  0.08576358    -0.02620
C385        C  0.32153795  0.38123837  0.09151367     0.02370
C386        C  0.30999473  0.40047177  0.07375421    -0.05500
C387        C  0.29876032  0.39091513  0.04958058    -0.02600
C388        C  0.29982836  0.36292280  0.04314871     0.02370
C389        C  0.32949708  0.33372655  0.10539354     0.37020
C390        C  0.28601832  0.40970294  0.03150225     0.37010
C391        C  0.28779775  0.35299248  0.01879849     0.35430
C392        C  0.33466187  0.38995704  0.11595375     0.35430
N393        N  0.27765417  0.34496649  0.49962267    -0.39390
N394        N  0.34508436  0.39682258  0.13544669    -0.39390
N395        N  0.27607226  0.42509342  0.01726982    -0.38830
N396        N  0.33629537  0.31795918  0.12104004    -0.38830
C397        C  0.31355638  0.09592469  0.06914679    -0.05500
C398        C  0.29695913  0.11264635  0.05349991    -0.02620
C399        C  0.30242870  0.14068367  0.05068732     0.02370
C400        C  0.32533623  0.15197194  0.06247430    -0.05500
C401        C  0.34191311  0.13482363  0.07802041    -0.02600
C402        C  0.33621343  0.10715920  0.08094855     0.02370
C403        C  0.27405639  0.10092125  0.04061108     0.37020
C404        C  0.36504205  0.14540041  0.09161510     0.37010
C405        C  0.35349211  0.09006533  0.09692993     0.35430
C406        C  0.28407374  0.15785894  0.03640097     0.35430
N407        N  0.36721435  0.07641926  0.10961789    -0.39390
N408        N  0.26902943  0.17167108  0.02559011    -0.39390
N409        N  0.38377601  0.15286935  0.10259370    -0.38830
N410        N  0.25599416  0.09129949  0.03012062    -0.38830
C411        C  0.29880956  0.40119960  0.43821806    -0.05500
C412        C  0.28626621  0.37812822  0.42657995    -0.02620
C413        C  0.29425423  0.35170894  0.43352707     0.02370
C414        C  0.31490165  0.34801321  0.45185296    -0.05500
C415        C  0.32547930  0.37105484  0.46551645    -0.02600
C416        C  0.31729227  0.39744667  0.45874923     0.02370
C417        C  0.26570460  0.38125389  0.40654529     0.37020
C418        C  0.34564934  0.36809512  0.48598549     0.37010
C419        C  0.32938022  0.42078154  0.47148914     0.35430
C420        C  0.28255528  0.32843888  0.42034580     0.35430
N421        N  0.33906741  0.43934975  0.48166035    -0.39390
N422        N  0.27320825  0.30992171  0.40976571    -0.39390
N423        N  0.36207410  0.36638555  0.50202154    -0.38830
N424        N  0.24954542  0.38328466  0.39027093    -0.38830
C425        C  0.32473503  0.14507273  0.45523924    -0.05500
C426        C  0.34224395  0.12246392  0.45162801    -0.02620
C427        C  0.33240983  0.09643543  0.44596092     0.02370
C428        C  0.30541569  0.09167678  0.44632011    -0.05500
C429        C  0.28846205  0.11233134  0.45507100    -0.02600
C430        C  0.29756810  0.13929755  0.45767278     0.02370
C431        C  0.37052266  0.12478450  0.45457656     0.37020
C432        C  0.26216212  0.10514763  0.46314008     0.37010
C433        C  0.27875586  0.16070675  0.46243037     0.35430
C434        C  0.35012359  0.07424507  0.43975357     0.35430
N435        N  0.26357595  0.17776701  0.46595138    -0.39390
N436        N  0.36425808  0.05660754  0.43481024    -0.39390
N437        N  0.24153029  0.09901952  0.47049402    -0.38830
N438        N  0.39303154  0.12609753  0.45771813    -0.38830
C439        C  0.43963823  0.31074797  0.34458462    -0.05500
C440        C  0.45864004  0.29504163  0.35822703    -0.02620
C441        C  0.45789071  0.29244679  0.38643729     0.02370
C442        C  0.43895297  0.30706995  0.40164385    -0.05500
C443        C  0.41932053  0.32184454  0.38729506    -0.02600
C444        C  0.41860734  0.32145757  0.35917807     0.02370
C445        C  0.47951481  0.28214086  0.34330250     0.37020
C446        C  0.39962318  0.33802746  0.40077968     0.37010
C447        C  0.39562488  0.33164598  0.34512004     0.35430
C448        C  0.47671318  0.27452947  0.39926649     0.35430
N449        N  0.37649321  0.33892960  0.33472523    -0.39390
N450        N  0.49177846  0.26001798  0.40914233    -0.39390
N451        N  0.38390935  0.35129601  0.41107335    -0.38830
N452        N  0.49609902  0.27161256  0.33150226    -0.38830
C453        C  0.43545732  0.30921426  0.10241412    -0.05500
C454        C  0.45530416  0.29585590  0.11760045    -0.02620
C455        C  0.45660370  0.29848998  0.14574610     0.02370
C456        C  0.43934572  0.31590507  0.15933497    -0.05500
C457        C  0.41887493  0.32841501  0.14466688    -0.02600
C458        C  0.41719159  0.32564288  0.11650877     0.02370
C459        C  0.47647747  0.28221890  0.10405847     0.37020
C460        C  0.40028868  0.34553861  0.15866553     0.37010
C461        C  0.39840622  0.34229266  0.10215110     0.35430
C462        C  0.47726597  0.28516294  0.16070155     0.35430
N463        N  0.38401620  0.35616582  0.09053296    -0.39390
N464        N  0.49345960  0.27481337  0.17334825    -0.39390
N465        N  0.38547840  0.35907537  0.16994098    -0.38830
N466        N  0.49322873  0.27239837  0.09199672    -0.38830
C467        C  0.43050263  0.18817908  0.34695648    -0.05500
C468        C  0.43133047  0.21552429  0.35491359    -0.02620
C469        C  0.42930315  0.22197576  0.38267876     0.02370
C470        C  0.43341204  0.20151916  0.40217272    -0.05500
C471        C  0.43041632  0.17452455  0.39358596    -0.02600
C472        C  0.42434026  0.16916065  0.36682096     0.02370
C473        C  0.42995300  0.23625575  0.33472328     0.37020
C474        C  0.43465571  0.15197356  0.41150178     0.37010
C475        C  0.40868677  0.14582897  0.35986200     0.35430
C476        C  0.41491783  0.24574987  0.39057484     0.35430
N477        N  0.39472029  0.12843817  0.35379559    -0.39390
N478        N  0.40120339  0.26319611  0.39703359    -0.39390
N479        N  0.43899003  0.13381272  0.42537879    -0.38830
N480        N  0.42839951  0.25241769  0.31811991    -0.38830
C481        C  0.43975454  0.21041687  0.10469815    -0.05500
C482        C  0.46481233  0.21038051  0.11675055    -0.02620
C483        C  0.46749854  0.20750658  0.14459361     0.02370
C484        C  0.44581535  0.20032144  0.16031379    -0.05500
C485        C  0.42047844  0.20170756  0.14873448    -0.02600
C486        C  0.41739592  0.20822627  0.12127098     0.02370
C487        C  0.48774725  0.21065856  0.09999267     0.37020
C488        C  0.39773707  0.19634625  0.16503047     0.37010
C489        C  0.39138882  0.21320469  0.11031398     0.35430
C490        C  0.49244533  0.21241958  0.15744695     0.35430
N491        N  0.37060308  0.21742382  0.10169915    -0.39390
N492        N  0.01183720  0.21759945  0.16840446    -0.39390
N493        N  0.37955056  0.19207377  0.17805317    -0.38830
N494        N  0.00500197  0.21058658  0.08516999    -0.38830
C495        C  0.18752759  0.40283369  0.43450017    -0.05500
C496        C  0.20431423  0.38445182  0.44796314    -0.02620
C497        C  0.19807015  0.35650502  0.44908460     0.02370
C498        C  0.17470403  0.34672978  0.43697103    -0.05500
C499        C  0.15819831  0.36530213  0.42323727    -0.02600
C500        C  0.16412021  0.39309568  0.42289526     0.02370
C501        C  0.22789939  0.39445585  0.46091281     0.37020
C502        C  0.13458265  0.35594941  0.40960556     0.37010
C503        C  0.14590652  0.41198569  0.41051621     0.35430
C504        C  0.21524464  0.33802213  0.46334053     0.35430
N505        N  0.13105400  0.42695869  0.40104877    -0.39390
N506        N  0.22880554  0.32296114  0.47453607    -0.39390
N507        N  0.11566031  0.34903410  0.39859213    -0.38830
N508        N  0.24657728  0.40248457  0.47156484    -0.38830
C509        C  0.18909517  0.09751835  0.43337992    -0.05500
C510        C  0.20377660  0.12109350  0.42655457    -0.02620
C511        C  0.19377532  0.14729383  0.43153578     0.02370
C512        C  0.16775162  0.15052127  0.44026068    -0.05500
C513        C  0.15199800  0.12667152  0.44333562    -0.02600
C514        C  0.16344416  0.10070190  0.44258279     0.02370
C515        C  0.22848944  0.11876922  0.41245424     0.37020
C516        C  0.12352353  0.12799832  0.44503264     0.37010
C517        C  0.14797490  0.07693289  0.44893006     0.35430
C518        C  0.20952609  0.17081580  0.42518594     0.35430
N519        N  0.13572837  0.05798945  0.45412879    -0.39390
N520        N  0.22208885  0.18950096  0.41984677    -0.39390
N521        N  0.10082533  0.12877316  0.44625383    -0.38830
N522        N  0.24791950  0.11751141  0.40070575    -0.38830
C523        C  0.19611840  0.34783050  0.04383602    -0.05500
C524        C  0.18720625  0.37140924  0.03017664    -0.02620
C525        C  0.19554810  0.39735230  0.03839474     0.02370
C526        C  0.21177124  0.40001349  0.06102040    -0.05500
C527        C  0.22365123  0.37637722  0.07211371    -0.02600
C528        C  0.21591943  0.35038277  0.06334033     0.02370
C529        C  0.16744991  0.36953729  0.00924175     0.37020
C530        C  0.24289928  0.37845264  0.09356935     0.37010
C531        C  0.22643470  0.32638926  0.07620259     0.35430
C532        C  0.18565965  0.42129402  0.02493452     0.35430
N533        N  0.23482762  0.30728718  0.08653170    -0.39390
N534        N  0.17785095  0.44032934  0.51403500    -0.39390
N535        N  0.25796311  0.37966565  0.11097475    -0.38830
N536        N  0.15115829  0.36896702  0.49300758    -0.38830
C537        C  0.20458584  0.09925206  0.06359591    -0.05500
C538        C  0.21731945  0.12297969  0.07358463    -0.02620
C539        C  0.20918044  0.14895953  0.06519907     0.02370
C540        C  0.18796593  0.15158453  0.04730105    -0.05500
C541        C  0.17691953  0.12779678  0.03556079    -0.02600
C542        C  0.18559938  0.10183750  0.04332449     0.02370
C543        C  0.23827093  0.12101568  0.09335462     0.37020
C544        C  0.15491381  0.12966933  0.01711324     0.37010
C545        C  0.17340315  0.07782395  0.03203478     0.35430
C546        C  0.22107698  0.17295991  0.07682846     0.35430
N547        N  0.16365679  0.05871291  0.02297830    -0.39390
N548        N  0.23055448  0.19206514  0.08619099    -0.39390
N549        N  0.13661927  0.13111168  0.00334290    -0.38830
N550        N  0.25480488  0.11987820  0.10932982    -0.38830
C551        C  0.05490675  0.30310004  0.41174856    -0.05500
C552        C  0.07429725  0.29640399  0.39263289    -0.02620
C553        C  0.06962846  0.30086534  0.36494923     0.02370
C554        C  0.04641023  0.31394770  0.35630886    -0.05500
C555        C  0.02753865  0.32141798  0.37592155    -0.02600
C556        C  0.03138929  0.31510587  0.40309716     0.02370
C557        C  0.09997227  0.28732018  0.40154441     0.37020
C558        C  0.00558033  0.33889967  0.36927739     0.37010
C559        C  0.01234281  0.32391329  0.42276722     0.35430
C560        C  0.08975817  0.29440170  0.34566332     0.35430
N561        N  0.49733301  0.33103400  0.43851076    -0.39390
N562        N  0.10584352  0.28931073  0.33025703    -0.39390
N563        N  0.48853034  0.35388879  0.36539390    -0.38830
N564        N  0.12085822  0.28109045  0.40850408    -0.38830
C565        C  0.07556079  0.30691553  0.11297588    -0.05500
C566        C  0.06300114  0.28902806  0.13116714    -0.02620
C567        C  0.06347173  0.29402862  0.15901195     0.02370
C568        C  0.07335673  0.31846486  0.16895365    -0.05500
C569        C  0.08861256  0.33465008  0.15189564    -0.02600
C570        C  0.08977292  0.32910217  0.12418371     0.02370
C571        C  0.04825611  0.26595830  0.12211105     0.37020
C572        C  0.10268118  0.35759723  0.16310250     0.37010
C573        C  0.10441214  0.34755283  0.10747431     0.35430
C574        C  0.05352476  0.27427425  0.17767939     0.35430
N575        N  0.11615684  0.36244144  0.09438450    -0.39390
N576        N  0.04625147  0.25871476  0.19314796    -0.39390
N577        N  0.11406756  0.37567977  0.17223225    -0.38830
N578        N  0.03577419  0.24724020  0.11672878    -0.38830
C579        C  0.04220991  0.19372398  0.35738288    -0.05500
C580        C  0.06570347  0.20609702  0.36606247    -0.02620
C581        C  0.07015043  0.21077235  0.39366652     0.02370
C582        C  0.05004318  0.20575277  0.41242723    -0.05500
C583        C  0.02591344  0.19527320  0.40355776    -0.02600
C584        C  0.02241668  0.18819368  0.37651984     0.02370
C585        C  0.08615009  0.21175803  0.34692862     0.37020
C586        C  0.00610191  0.18813094  0.42299466     0.37010
C587        C  0.00016607  0.17133018  0.36961126     0.35430
C588        C  0.09621782  0.21813362  0.40293710     0.35430
N589        N  0.98338074  0.15627513  0.36506125    -0.39390
N590        N  0.11729698  0.22301612  0.41031646    -0.39390
N591        N  0.99076289  0.18201567  0.43875837    -0.38830
N592        N  0.10242647  0.21638058  0.33162871    -0.38830
C593        C  0.05977702  0.18586227  0.16347554    -0.05500
C594        C  0.04595758  0.17273448  0.14201383    -0.02620
C595        C  0.05231281  0.17802735  0.11541751     0.02370
C596        C  0.07039717  0.19832325  0.10943870    -0.05500
C597        C  0.08428501  0.21161544  0.13026250    -0.02600
C598        C  0.07918196  0.20514748  0.15730724     0.02370
C599        C  0.02443184  0.15403802  0.14668247     0.37020
C600        C  0.10380290  0.23181285  0.12375214     0.37010
C601        C  0.09417485  0.21781162  0.17859999     0.35430
C602        C  0.04027823  0.16228505  0.09397115     0.35430
N603        N  0.10615019  0.22798219  0.19560876    -0.39390
N604        N  0.03077628  0.14974578  0.07690362    -0.39390
N605        N  0.11928983  0.24801221  0.11846456    -0.38830
N606        N  0.00741452  0.13891670  0.14986710    -0.38830
N607        N  0.16395127  0.21608710  0.52678060    -0.06280
N608        N  0.18477998  0.20127850  0.53378819    -0.58400
N609        N  0.13234646  0.20209529  0.97148393    -0.05960
N610        N  0.13314411  0.17912635  0.95871251    -0.60530
N611        N  0.15419641  0.21589814  0.96843912    -0.05560
N612        N  0.17086114  0.20074512  0.95441197    -0.58380
N613        N  0.14243861  0.20197765  0.53132058    -0.05240
N614        N  0.14806182  0.17885095  0.54268895    -0.60880
C615        C  0.17429700  0.17811020  0.54385259     0.95900
C616        C  0.15698400  0.17778384  0.94812987     0.95670
N617        N  0.05633221  0.22430912  0.98071659    -0.06470
N618        N  0.04351616  0.22679718  0.95770567    -0.58980
N619        N  0.08377512  0.20542212  0.54104030    -0.04590
N620        N  0.08900515  0.19339897  0.56396462    -0.60230
N621        N  0.06573834  0.22411128  0.54384450    -0.06500
N622        N  0.05840511  0.22535847  0.56901208    -0.59250
N623        N  0.07439720  0.20550793  0.97869384    -0.04230
N624        N  0.07440760  0.19501770  0.95445368    -0.60320
Mn625      Mn  0.10778709  0.20365741  0.50589098     1.18440
C626        C  0.05507196  0.20836932  0.94158541     0.97980
C627        C  0.07319920  0.20623161  0.58124526     0.98640
N628        N  0.15669244  0.28491130  0.96844529    -0.06520
N629        N  0.17418442  0.29727502  0.95304568    -0.62820
N630        N  0.14640535  0.30083714  0.53157434    -0.05320
N631        N  0.15424532  0.32394483  0.54170120    -0.63500
N632        N  0.16666475  0.28484616  0.52654844    -0.06020
N633        N  0.18876907  0.29818785  0.53214430    -0.63090
N634        N  0.13652191  0.30126833  0.97199207    -0.04920
N635        N  0.13903563  0.32343701  0.95815689    -0.63780
Mn636      Mn  0.16163216  0.25036919  0.99729271     1.10660
C637        C  0.16232711  0.32118282  0.94633602     0.99200
C638        C  0.18046745  0.32248878  0.54177897     0.99280
N639        N  0.06698533  0.28514778  0.54464022    -0.06030
N640        N  0.05902112  0.28445072  0.56978735    -0.61400
N641        N  0.07822992  0.30271230  0.97877052    -0.05350
N642        N  0.07974089  0.31229971  0.95422454    -0.58130
N643        N  0.05868692  0.28557851  0.98068426    -0.06660
N644        N  0.04639676  0.28343207  0.95731682    -0.60970
N645        N  0.08663317  0.30202932  0.54235645    -0.05650
N646        N  0.09230624  0.31309291  0.56574673    -0.58160
Mn647      Mn  0.06038167  0.25488604  0.51265187     1.20190
Mn648      Mn  0.11142706  0.30196772  0.00657100     1.10090
Cl649      Cl  0.11100519  0.25276501  0.50565786    -0.86130
C650        C  0.07487604  0.30222282  0.58294774     0.96210
C651        C  0.05982550  0.30017437  0.94102707     0.96000
N652        N  0.44114853  0.22658581  0.53522482    -0.06280
N653        N  0.45064291  0.23030576  0.55966389    -0.58400
N654        N  0.42321873  0.20539577  0.97207768    -0.05960
N655        N  0.41913945  0.19354952  0.94883821    -0.60530
N656        N  0.44013579  0.22523558  0.96987286    -0.05560
N657        N  0.44734583  0.22749251  0.94446590    -0.58380
N658        N  0.42317205  0.20763133  0.53557264    -0.05240
N659        N  0.42000721  0.19824580  0.56002493    -0.60880
C660        C  0.43731952  0.21246462  0.57493533     0.95900
C661        C  0.43424927  0.20721353  0.93165224     0.95670
N662        N  0.34166001  0.21357287  0.97414995    -0.06470
N663        N  0.32277877  0.19653016  0.96616453    -0.58980
N664        N  0.36422406  0.20196706  0.53344946    -0.04590
N665        N  0.36151652  0.17920776  0.54632374    -0.60230
N666        N  0.34204621  0.21578927  0.53280390    -0.06500
N667        N  0.32343752  0.20116004  0.54462010    -0.59250
N668        N  0.36434723  0.20074162  0.97310004    -0.04230
N669        N  0.36145950  0.17662231  0.96288191    -0.60320
Mn670      Mn  0.39435819  0.20397532  0.50363453     1.18440
C671        C  0.33573688  0.17336065  0.95894528     0.97980
C672        C  0.33634996  0.17855333  0.55355578     0.98640
N673        N  0.43924100  0.28643922  0.97021678    -0.06520
N674        N  0.45087414  0.28612215  0.94667477    -0.62820
N675        N  0.41783011  0.30460973  0.53293094    -0.05320
N676        N  0.41439026  0.31597982  0.55656040    -0.63500
N677        N  0.43787528  0.28793922  0.53363494    -0.06020
N678        N  0.44828177  0.28780808  0.55792164    -0.63090
N679        N  0.41945114  0.30329993  0.96985995    -0.04920
N680        N  0.41739965  0.31485417  0.94626189    -0.63780
Mn681      Mn  0.44128783  0.25637789  0.50219863     1.10660
C682        C  0.43714897  0.30420584  0.93169636     0.99200
C683        C  0.43369466  0.30560455  0.57224442     0.99280
N684        N  0.33784717  0.28469853  0.53030336    -0.06030
N685        N  0.31736128  0.29611780  0.54233165    -0.61400
N686        N  0.35976806  0.29832678  0.96903082    -0.05350
N687        N  0.35441617  0.32105935  0.95689517    -0.58130
N688        N  0.33841694  0.28338981  0.97183430    -0.06660
N689        N  0.31777718  0.29787549  0.96359209    -0.60970
N690        N  0.35743383  0.30218307  0.52955918    -0.05650
N691        N  0.35120757  0.32470710  0.54177193    -0.58160
Mn692      Mn  0.33885467  0.24937146  0.50225833     1.20190
Mn693      Mn  0.38889935  0.30229656  0.50039849     1.10090
Cl694      Cl  0.39052983  0.25306717  0.50220155    -0.86130
C695        C  0.32647279  0.32096892  0.54963625     0.96210
C696        C  0.32837351  0.32132780  0.95424096     0.96000
N697        N  0.22502379  0.03473421  0.58774592    -0.06280
N698        N  0.21707950  0.04929596  0.56682779    -0.58400
N699        N  0.28137799  0.05122920  0.61131904    -0.05960
N700        N  0.29392922  0.07386412  0.60707629    -0.60530
N701        N  0.28277397  0.03494452  0.59045276    -0.05560
N702        N  0.29553686  0.04749323  0.57096845    -0.58380
N703        N  0.22215462  0.04953519  0.60958319    -0.05240
N704        N  0.21103554  0.07278453  0.60413719    -0.60880
C705        C  0.20831144  0.07295334  0.57764410     0.95900
C706        C  0.30274197  0.07154718  0.58217435     0.95670
N707        N  0.28316568  0.03136983  0.68998624    -0.06470
N708        N  0.30736380  0.03025573  0.69991868    -0.58980
N709        N  0.21994032  0.04972664  0.67077291    -0.04590
N710        N  0.19690495  0.06209134  0.66925662    -0.60230
N711        N  0.22006096  0.03170783  0.68982353    -0.06500
N712        N  0.19682640  0.03137893  0.70142152    -0.59250
N713        N  0.28179705  0.05032201  0.67180024    -0.04230
N714        N  0.30463222  0.06261878  0.66942104    -0.60320
Mn715      Mn  0.25109785  0.05029697  0.64134172     1.18440
C716        C  0.32055105  0.05035554  0.68734277     0.97980
C717        C  0.18238146  0.05066437  0.68868017     0.98640
N718        N  0.28349970  0.46545457  0.59112887    -0.06520
N719        N  0.29552904  0.45089280  0.57232399    -0.62820
N720        N  0.22337051  0.45047426  0.60874162    -0.05320
N721        N  0.21444293  0.42640676  0.60245166    -0.63500
N722        N  0.22613026  0.46551997  0.58715379    -0.06020
N723        N  0.22044128  0.45055935  0.56575262    -0.63090
N724        N  0.28261440  0.45084213  0.61306100    -0.04920
N725        N  0.29501062  0.42798586  0.61027654    -0.63120
Mn726      Mn  0.25449000  0.00021018  0.58799384     1.10660
C727        C  0.30314778  0.42763835  0.58513207     0.99200
C728        C  0.21316295  0.42620452  0.57581480     0.99280
N729        N  0.21972255  0.47023567  0.68909132    -0.06030
N730        N  0.19608513  0.47176328  0.69959405    -0.61400
N731        N  0.28164709  0.45053259  0.67254574    -0.05350
N732        N  0.30426914  0.43750210  0.67094651    -0.58130
N733        N  0.28256851  0.46901062  0.69127713    -0.06660
N734        N  0.30607940  0.46883113  0.70292340    -0.60970
N735        N  0.21967639  0.45219069  0.66989513    -0.05650
N736        N  0.19625690  0.44090285  0.66710059    -0.58160
Mn737      Mn  0.25156594  0.50060949  0.69158623     1.20190
Mn738      Mn  0.25150090  0.45113880  0.64150259     1.10090
Cl739      Cl  0.25215896  0.50063286  0.63997768    -0.86130
C740        C  0.18165232  0.45315981  0.68595317     0.96210
C741        C  0.31930360  0.44872280  0.69024843     0.96000
N742        N  0.21497722  0.03036740  0.81522971    -0.06280
N743        N  0.19137980  0.03016454  0.80366982    -0.58400
N744        N  0.27774059  0.05066419  0.83546322    -0.05960
N745        N  0.30040871  0.06369086  0.83724837    -0.60530
N746        N  0.27810373  0.03275782  0.81610599    -0.05560
N747        N  0.30138073  0.03316660  0.80462647    -0.58380
N748        N  0.21588352  0.04929154  0.83355969    -0.05240
N749        N  0.19325208  0.06233810  0.83474496    -0.60880
C750        C  0.17800319  0.05059397  0.81583701     0.95900
C751        C  0.31516177  0.05286148  0.81761317     0.95670
N752        N  0.27493061  0.03366674  0.91789127    -0.06470
N753        N  0.28694214  0.04461713  0.93893509    -0.58980
N754        N  0.21560813  0.04793384  0.89301999    -0.04590
N755        N  0.20252856  0.07039625  0.89604912    -0.60230
N756        N  0.21671359  0.03369960  0.91524411    -0.06500
N757        N  0.20561862  0.04829581  0.93457714    -0.59250
N758        N  0.27485785  0.05095428  0.89781625    -0.04230
N759        N  0.28712344  0.07332968  0.90465250    -0.60320
Mn760      Mn  0.24636189  0.04983414  0.86464451     1.18440
C761        C  0.29470144  0.06920012  0.93004245     0.97980
C762        C  0.19673317  0.07102784  0.92178025     0.98640
N763        N  0.28071236  0.47094139  0.81526860    -0.06520
N764        N  0.30409468  0.47262758  0.80392405    -0.62820
N765        N  0.22017158  0.44808694  0.83428134    -0.05320
N766        N  0.19849219  0.43365679  0.83677510    -0.63500
N767        N  0.21736475  0.46696368  0.81613057    -0.06020
N768        N  0.19315869  0.46575288  0.80619864    -0.63090
N769        N  0.28131201  0.45243811  0.83394718    -0.04920
N770        N  0.30462510  0.44083594  0.83547487    -0.63780
Mn771      Mn  0.24752998  0.00023144  0.81400814     1.10660
C772        C  0.31861866  0.45334551  0.81648384     0.99200
C773        C  0.18179765  0.44437442  0.81874680     0.99280
N774        N  0.21898020  0.46412868  0.91507640    -0.06030
N775        N  0.20558410  0.45138619  0.93401418    -0.61400
N776        N  0.28084643  0.45243364  0.89466329    -0.05350
N777        N  0.29321684  0.42967684  0.89917484    -0.58130
N778        N  0.27699443  0.46596074  0.91704985    -0.06660
N779        N  0.28517345  0.45078467  0.93742506    -0.60970
N780        N  0.22118753  0.44798025  0.89422623    -0.05650
N781        N  0.20856124  0.42528703  0.89778988    -0.58160
Mn782      Mn  0.24667297  0.99939572  0.91746934     1.20190
Mn783      Mn  0.25105964  0.45029261  0.86395175     1.10090
Cl784      Cl  0.24789424  0.99998189  0.86521258    -0.86130
C785        C  0.19884576  0.42737786  0.92231845     0.96210
C786        C  0.29533966  0.42822702  0.92566147     0.96000
N787        N  0.03008009  0.17099739  0.72493272    -0.06280
N788        N  0.04268560  0.18998843  0.71115668    -0.58400
N789        N  0.47243433  0.15236354  0.70376078    -0.05960
N790        N  0.46015640  0.15828169  0.68128702    -0.60530
N791        N  0.47109848  0.17281715  0.72062617    -0.05560
N792        N  0.45865127  0.19341195  0.70896646    -0.58380
N793        N  0.03342821  0.14773088  0.71262999    -0.05240
N794        N  0.05047250  0.14967753  0.69345715    -0.60880
C795        C  0.05533438  0.17602736  0.69132164     0.95900
C796        C  0.45118496  0.18365273  0.68458423     0.95670
N797        N  0.46877830  0.06991710  0.72076942    -0.06470
N798        N  0.44589884  0.05758703  0.71862316    -0.58980
N799        N  0.03146789  0.08782859  0.70709706    -0.04590
N800        N  0.05427435  0.08825061  0.69471127    -0.60230
N801        N  0.03080062  0.06816781  0.72442872    -0.06500
N802        N  0.05333432  0.05475057  0.72403551    -0.59250
N803        N  0.47003763  0.08962091  0.70329984    -0.04230
N804        N  0.44819949  0.09095038  0.68884000    -0.60320
Mn805      Mn  0.00160123  0.11940072  0.70631956     1.18440
C806        C  0.43330512  0.07057924  0.69836937     0.97980
C807        C  0.06802465  0.06736116  0.70518654     0.98640
N808        N  0.46605667  0.17074988  0.78768037    -0.06520
N809        N  0.45208480  0.18989477  0.80011444    -0.62820
N810        N  0.02476801  0.14892110  0.80689090    -0.05320
N811        N  0.03547112  0.15336583  0.83038679    -0.63500
N812        N  0.02447497  0.17116191  0.79241135    -0.06020
N813        N  0.03351872  0.19157802  0.80727928    -0.63090
N814        N  0.46453419  0.14810463  0.80143332    -0.04920
N815        N  0.44850618  0.15081761  0.82142121    -0.63780
Mn816      Mn  0.49789372  0.17280101  0.75631512     1.10660
C817        C  0.44073342  0.17672219  0.82110727     0.99200
C818        C  0.04069906  0.17988173  0.83087696     0.99280
N819        N  0.02801227  0.06830891  0.78606427    -0.06030
N820        N  0.05157279  0.05705922  0.78644345    -0.61400
N821        N  0.46495086  0.08583026  0.80110339    -0.05350
N822        N  0.44248993  0.08492252  0.81411446    -0.58130
N823        N  0.46566681  0.06704367  0.78265156    -0.06660
N824        N  0.44347110  0.05305871  0.78265946    -0.60970
N825        N  0.02684176  0.08735990  0.80432766    -0.05650
N826        N  0.04947256  0.08944412  0.81741193    -0.58160
Mn827      Mn  0.99824073  0.06691724  0.75350566     1.20190
Mn828      Mn  0.99522061  0.11730350  0.80360750     1.10090
Cl829      Cl  0.99795467  0.11925488  0.75495532    -0.86130
C830        C  0.06472750  0.07022019  0.80624738     0.96210
C831        C  0.42915877  0.06414560  0.80272405     0.96000
N832        N  0.03243025  0.43985814  0.72563485    -0.06280
N833        N  0.05503758  0.45314426  0.72528616    -0.58400
N834        N  0.47080242  0.42053963  0.70480122    -0.05960
N835        N  0.44849158  0.41915517  0.69108833    -0.60530
N836        N  0.46943727  0.43899980  0.72365632    -0.05560
N837        N  0.44569751  0.45011254  0.72334239    -0.58380
N838        N  0.03237135  0.42110406  0.70710750    -0.05240
N839        N  0.05465926  0.42122598  0.69382925    -0.60880
C840        C  0.06873829  0.44148104  0.70506587     0.95900
C841        C  0.43306931  0.43812721  0.70238210     0.95670
N842        N  0.47239197  0.33694902  0.71904624    -0.06470
N843        N  0.45817849  0.31768413  0.70711636    -0.58980
N844        N  0.03229884  0.35929367  0.70704173    -0.04590
N845        N  0.04920110  0.35627654  0.68770621    -0.60230
N846        N  0.03240187  0.33816438  0.72308071    -0.06500
N847        N  0.04918371  0.31984837  0.71372081    -0.59250
N848        N  0.47258064  0.35849663  0.70358256    -0.04230
N849        N  0.45813814  0.35479743  0.68206892    -0.60320
Mn850      Mn  0.50199141  0.39005129  0.70534233     1.18440
C851        C  0.44890615  0.32956808  0.68424959     0.97980
C852        C  0.05996376  0.33189021  0.69184909     0.98640
N853        N  0.46834791  0.43890714  0.78538566    -0.06520
N854        N  0.44547177  0.45179085  0.78531663    -0.62820
N855        N  0.02938253  0.41824452  0.80613753    -0.05320
N856        N  0.05170296  0.41509025  0.81953337    -0.63500
N857        N  0.03142119  0.43723758  0.78802219    -0.06020
N858        N  0.05561841  0.44712388  0.78877215    -0.63090
N859        N  0.46795289  0.41920508  0.80283569    -0.04920
N860        N  0.44516669  0.41828117  0.81509001    -0.63780
Mn861      Mn  0.50050533  0.44033817  0.75574772     1.10660
C862        C  0.43130692  0.43879750  0.80419259     0.99200
C863        C  0.06794334  0.43353129  0.80893677     0.99280
N864        N  0.02787565  0.33541064  0.79081939    -0.06030
N865        N  0.03683343  0.31500081  0.80582028    -0.61400
N866        N  0.46811603  0.35683100  0.80163554    -0.05350
N867        N  0.45361348  0.35156576  0.82246154    -0.58130
N868        N  0.46974546  0.33545455  0.78591089    -0.06660
N869        N  0.45752218  0.31472930  0.79728405    -0.60970
N870        N  0.02866271  0.35767426  0.80531094    -0.05650
N871        N  0.03997807  0.35345769  0.82850069    -0.58160
Mn872      Mn  0.50072176  0.33516511  0.75444399     1.20190
Mn873      Mn  0.49831817  0.38829985  0.80396693     1.10090
Cl874      Cl  0.50034659  0.38827458  0.75484611    -0.86130
C875        C  0.04470818  0.32692205  0.82928007     0.96210
C876        C  0.44701319  0.32545935  0.81989464     0.96000
C877        C  0.34749417  0.44959601  0.81374027    -0.05500
C878        C  0.35783543  0.42382520  0.80791623    -0.02620
C879        C  0.38522279  0.42020361  0.80557492     0.02370
C880        C  0.40253118  0.44246579  0.80833553    -0.05500
C881        C  0.39237244  0.46752319  0.81691133    -0.02600
C882        C  0.36500591  0.47067757  0.82067150     0.02370
C883        C  0.34040877  0.40068380  0.80586885     0.37020
C884        C  0.41040304  0.48882388  0.82475520     0.37010
C885        C  0.35534186  0.49295714  0.83655815     0.35430
C886        C  0.39551324  0.39333118  0.80100385     0.35430
N887        N  0.34744956  0.00944698  0.85079879    -0.39390
N888        N  0.40380582  0.37187021  0.79735445    -0.39390
N889        N  0.42521842  0.00531756  0.83136214    -0.38830
N890        N  0.32654459  0.38217923  0.80454652    -0.38830
C891        C  0.15286393  0.43836548  0.81865333    -0.05500
C892        C  0.14165632  0.42009405  0.80007887    -0.02620
C893        C  0.11393817  0.41784270  0.79749810     0.02370
C894        C  0.09713722  0.43338957  0.81393817    -0.05500
C895        C  0.10845328  0.44862103  0.83498903    -0.02600
C896        C  0.13614312  0.45153161  0.83704162     0.02370
C897        C  0.15865254  0.40349689  0.78374819     0.37020
C898        C  0.09163836  0.46120104  0.85462292     0.37010
C899        C  0.14744912  0.46922190  0.85723342     0.35430
C900        C  0.10264015  0.39995236  0.77748703     0.35430
N901        N  0.15656248  0.48336566  0.87325853    -0.39390
N902        N  0.09357821  0.38574817  0.76148459    -0.39390
N903        N  0.07823453  0.47114555  0.87040310    -0.38830
N904        N  0.17224847  0.39017535  0.77078355    -0.38830
C905        C  0.34439274  0.05759774  0.81399225    -0.05500
C906        C  0.35652222  0.04843764  0.79042774    -0.02620
C907        C  0.38409957  0.04685707  0.78839229     0.02370
C908        C  0.40047923  0.05856018  0.80808670    -0.05500
C909        C  0.38874474  0.06679416  0.83228116    -0.02600
C910        C  0.36094763  0.06732124  0.83492121     0.02370
C911        C  0.34022363  0.04219322  0.76764683     0.37020
C912        C  0.40531992  0.07123453  0.85559857     0.37010
C913        C  0.34978820  0.07779002  0.85932433     0.35430
C914        C  0.39535624  0.02896697  0.76882542     0.35430
N915        N  0.34104548  0.08666689  0.87869105    -0.39390
N916        N  0.40487034  0.01317491  0.75489630    -0.39390
N917        N  0.41851429  0.07447814  0.87427986    -0.38830
N918        N  0.32527809  0.03827117  0.75064448    -0.38830
C919        C  0.09336813  0.06598576  0.81210997    -0.05500
C920        C  0.10339061  0.03957157  0.81135737    -0.02620
C921        C  0.13063122  0.03502878  0.80954103     0.02370
C922        C  0.14886802  0.05627184  0.81329444    -0.05500
C923        C  0.13871033  0.08276900  0.81713204    -0.02600
C924        C  0.11118982  0.08772565  0.81560208     0.02370
C925        C  0.08526253  0.01699935  0.81252950     0.37020
C926        C  0.15652389  0.10530049  0.82125163     0.37010
C927        C  0.10150982  0.11526236  0.81700975     0.35430
C928        C  0.13919545  0.00893243  0.80089407     0.35430
N929        N  0.09407172  0.13735910  0.81816757    -0.39390
N930        N  0.14523166  0.48845107  0.79187490    -0.39390
N931        N  0.17069132  0.12330853  0.82462801    -0.38830
N932        N  0.06987630  0.99984354  0.81321628    -0.38830
C933        C  0.34837369  0.44435852  0.69209787    -0.05500
C934        C  0.36525570  0.45549779  0.67266909    -0.02620
C935        C  0.39293009  0.45294260  0.67540411     0.02370
C936        C  0.40393213  0.43947944  0.69769166    -0.05500
C937        C  0.38698114  0.42558528  0.71500544    -0.02600
C938        C  0.35939101  0.42870762  0.71285318     0.02370
C939        C  0.35414080  0.47001115  0.65011475     0.37020
C940        C  0.39821483  0.40518279  0.73221663     0.37010
C941        C  0.34217687  0.41518174  0.73133598     0.35430
C942        C  0.41001973  0.46345519  0.65493244     0.35430
N943        N  0.32791886  0.40447177  0.74569118    -0.39390
N944        N  0.42367563  0.47177151  0.63854761    -0.39390
N945        N  0.40844666  0.38810264  0.74408842    -0.38830
N946        N  0.34520868  0.48152116  0.63209894    -0.38830
C947        C  0.15276398  0.44900301  0.68996503    -0.05500
C948        C  0.14254317  0.45248774  0.71567176    -0.02620
C949        C  0.11528726  0.45267915  0.71994635     0.02370
C950        C  0.09740716  0.44606009  0.69920965    -0.05500
C951        C  0.10768672  0.44126142  0.67335549    -0.02600
C952        C  0.13513085  0.44320611  0.66865834     0.02370
C953        C  0.16056245  0.45423576  0.73806645     0.37020
C954        C  0.09007036  0.43510861  0.65123797     0.37010
C955        C  0.14494067  0.43949653  0.64182355     0.35430
C956        C  0.10613848  0.46048808  0.74581489     0.35430
N957        N  0.15261366  0.43645881  0.62035016    -0.39390
N958        N  0.09950526  0.46783409  0.76651155    -0.39390
N959        N  0.07611172  0.43008169  0.63354386    -0.38830
N960        N  0.17628310  0.45524814  0.75478918    -0.38830
C961        C  0.40517158  0.06515098  0.69088890    -0.05500
C962        C  0.38784233  0.08565263  0.68197957    -0.02620
C963        C  0.36039361  0.08077119  0.68048434     0.02370
C964        C  0.34974561  0.05562912  0.68908373    -0.05500
C965        C  0.36760800  0.03520509  0.69741956    -0.02600
C966        C  0.39489387  0.03932041  0.69568656     0.02370
C967        C  0.39800913  0.11171766  0.67398462     0.37020
C968        C  0.35885572  0.01120677  0.71097798     0.37010
C969        C  0.41292276  0.01682537  0.69818189     0.35430
C970        C  0.34330416  0.10242181  0.67126974     0.35430
N971        N  0.42861768  0.00005214  0.70025451    -0.39390
N972        N  0.32988416  0.11978401  0.66375567    -0.39390
N973        N  0.35303157  0.99295472  0.72400596    -0.38830
N974        N  0.40599219  0.13245542  0.66719908    -0.38830
C975        C  0.15311637  0.05558144  0.69278696    -0.05500
C976        C  0.13786842  0.07172176  0.67492165    -0.02620
C977        C  0.11032026  0.07505020  0.67847446     0.02370
C978        C  0.09709865  0.06228833  0.69992967    -0.05500
C979        C  0.11234195  0.04587954  0.71729111    -0.02600
C980        C  0.13985387  0.04319985  0.71427931     0.02370
C981        C  0.15014799  0.08533643  0.65265594     0.37020
C982        C  0.09965149  0.03150236  0.73848990     0.37010
C983        C  0.15473627  0.02837327  0.73412994     0.35430
C984        C  0.09575468  0.09140908  0.65936592     0.35430
N985        N  0.16787706  0.01701432  0.74932737    -0.39390
N986        N  0.08435376  0.10453224  0.64403840    -0.39390
N987        N  0.08811612  0.02036746  0.75480675    -0.38830
N988        N  0.15962615  0.09640793  0.63484475    -0.38830
C989        C  0.31187040  0.34425129  0.56077300    -0.05500
C990        C  0.32066324  0.35338382  0.58576358    -0.02620
C991        C  0.32153796  0.38123839  0.59151368     0.02370
C992        C  0.30999474  0.40047178  0.57375422    -0.05500
C993        C  0.29876032  0.39091514  0.54958059    -0.02600
C994        C  0.29982837  0.36292281  0.54314872     0.02370
C995        C  0.32949711  0.33372656  0.60539354     0.37020
C996        C  0.28601832  0.40970295  0.53150226     0.37010
C997        C  0.28779775  0.35299249  0.51879851     0.35430
C998        C  0.33466188  0.38995706  0.61595375     0.35430
N999        N  0.27765417  0.34496648  0.99962266    -0.39390
N1000       N  0.34508437  0.39682260  0.63544669    -0.39390
N1001       N  0.27607225  0.42509343  0.51726983    -0.38830
N1002       N  0.33629541  0.31795920  0.62104004    -0.38830
C1003       C  0.31355638  0.09592471  0.56914680    -0.05500
C1004       C  0.29695913  0.11264637  0.55349992    -0.02620
C1005       C  0.30242870  0.14068369  0.55068734     0.02370
C1006       C  0.32533623  0.15197195  0.56247431    -0.05500
C1007       C  0.34191311  0.13482364  0.57802042    -0.02600
C1008       C  0.33621343  0.10715921  0.58094856     0.02370
C1009       C  0.27405639  0.10092127  0.54061109     0.37020
C1010       C  0.36504205  0.14540042  0.59161511     0.37010
C1011       C  0.35349211  0.09006534  0.59692994     0.35430
C1012       C  0.28407374  0.15785895  0.53640099     0.35430
N1013       N  0.36721434  0.07641927  0.60961790    -0.39390
N1014       N  0.26902943  0.17167110  0.52559012    -0.39390
N1015       N  0.38377601  0.15286937  0.60259371    -0.38830
N1016       N  0.25599415  0.09129951  0.53012063    -0.38830
C1017       C  0.29880957  0.40119959  0.93821805    -0.05500
C1018       C  0.28626622  0.37812821  0.92657993    -0.02620
C1019       C  0.29425424  0.35170894  0.93352706     0.02370
C1020       C  0.31490166  0.34801321  0.95185295    -0.05500
C1021       C  0.32547930  0.37105483  0.96551644    -0.02600
C1022       C  0.31729227  0.39744667  0.95874922     0.02370
C1023       C  0.26570461  0.38125389  0.90654528     0.37020
C1024       C  0.34564934  0.36809512  0.98598549     0.37010
C1025       C  0.32938022  0.42078153  0.97148913     0.35430
C1026       C  0.28255529  0.32843888  0.92034579     0.35430
N1027       N  0.33906742  0.43934974  0.98166034    -0.39390
N1028       N  0.27320826  0.30992171  0.90976570    -0.39390
N1029       N  0.36207410  0.36638555  0.00202154    -0.38830
N1030       N  0.24954543  0.38328466  0.89027091    -0.38830
C1031       C  0.32473502  0.14507271  0.95523927    -0.05500
C1032       C  0.34224394  0.12246391  0.95162808    -0.02620
C1033       C  0.33240983  0.09643542  0.94596096     0.02370
C1034       C  0.30541569  0.09167677  0.94632012    -0.05500
C1035       C  0.28846205  0.11233132  0.95507100    -0.02600
C1036       C  0.29756809  0.13929753  0.95767279     0.02370
C1037       C  0.37052265  0.12478447  0.95457672     0.37020
C1038       C  0.26216211  0.10514761  0.96314008     0.37010
C1039       C  0.27875585  0.16070674  0.96243036     0.35430
C1040       C  0.35012360  0.07424506  0.93975362     0.35430
N1041       N  0.26357594  0.17776700  0.96595136    -0.39390
N1042       N  0.36425809  0.05660753  0.93481029    -0.39390
N1043       N  0.24153028  0.09901950  0.97049401    -0.38830
N1044       N  0.39303152  0.12609749  0.95771836    -0.38830
C1045       C  0.43963824  0.31074801  0.84458463    -0.05500
C1046       C  0.45864005  0.29504166  0.85822704    -0.02620
C1047       C  0.45789072  0.29244682  0.88643730     0.02370
C1048       C  0.43895298  0.30706998  0.90164386    -0.05500
C1049       C  0.41932055  0.32184459  0.88729508    -0.02600
C1050       C  0.41860736  0.32145762  0.85917809     0.02370
C1051       C  0.47951481  0.28214089  0.84330251     0.37020
C1052       C  0.39962322  0.33802752  0.90077971     0.37010
C1053       C  0.39562491  0.33164606  0.84512007     0.35430
C1054       C  0.47671318  0.27452949  0.89926649     0.35430
N1055       N  0.37649324  0.33892971  0.83472526    -0.39390
N1056       N  0.49177846  0.26001798  0.90914232    -0.39390
N1057       N  0.38390941  0.35129609  0.91107339    -0.38830
N1058       N  0.49609902  0.27161259  0.83150226    -0.38830
C1059       C  0.43545732  0.30921428  0.60241412    -0.05500
C1060       C  0.45530415  0.29585590  0.61760045    -0.02620
C1061       C  0.45660369  0.29848998  0.64574610     0.02370
C1062       C  0.43934571  0.31590508  0.65933497    -0.05500
C1063       C  0.41887493  0.32841503  0.64466688    -0.02600
C1064       C  0.41719159  0.32564290  0.61650877     0.02370
C1065       C  0.47647746  0.28221890  0.60405848     0.37020
C1066       C  0.40028869  0.34553863  0.65866552     0.37010
C1067       C  0.39840623  0.34229269  0.60215110     0.35430
C1068       C  0.47726595  0.28516293  0.66070155     0.35430
N1069       N  0.38401622  0.35616586  0.59053296    -0.39390
N1070       N  0.49345957  0.27481335  0.67334826    -0.39390
N1071       N  0.38547841  0.35907540  0.66994097    -0.38830
N1072       N  0.49322871  0.27239836  0.59199673    -0.38830
C1073       C  0.43050261  0.18817910  0.84695645    -0.05500
C1074       C  0.43133047  0.21552430  0.85491358    -0.02620
C1075       C  0.42930315  0.22197577  0.88267875     0.02370
C1076       C  0.43341201  0.20151916  0.90217270    -0.05500
C1077       C  0.43041625  0.17452455  0.89358593    -0.02600
C1078       C  0.42434020  0.16916067  0.86682093     0.02370
C1079       C  0.42995303  0.23625577  0.83472327     0.37020
C1080       C  0.43465558  0.15197355  0.91150175     0.37010
C1081       C  0.40868670  0.14582901  0.85986194     0.35430
C1082       C  0.41491784  0.24574989  0.89057482     0.35430
N1083       N  0.39472022  0.12843821  0.85379551    -0.39390
N1084       N  0.40120342  0.26319614  0.89703357    -0.39390
N1085       N  0.43898985  0.13381270  0.92537876    -0.38830
N1086       N  0.42839956  0.25241771  0.81811990    -0.38830
C1087       C  0.43975455  0.21041688  0.60469816    -0.05500
C1088       C  0.46481235  0.21038051  0.61675055    -0.02620
C1089       C  0.46749856  0.20750658  0.64459362     0.02370
C1090       C  0.44581536  0.20032144  0.66031380    -0.05500
C1091       C  0.42047845  0.20170757  0.64873448    -0.02600
C1092       C  0.41739593  0.20822628  0.62127099     0.02370
C1093       C  0.48774726  0.21065855  0.59999267     0.37020
C1094       C  0.39773708  0.19634626  0.66503048     0.37010
C1095       C  0.39138883  0.21320471  0.61031399     0.35430
C1096       C  0.49244534  0.21241957  0.65744695     0.35430
N1097       N  0.37060310  0.21742384  0.60169916    -0.39390
N1098       N  0.01183720  0.21759945  0.66840445    -0.39390
N1099       N  0.37955058  0.19207378  0.67805318    -0.38830
N1100       N  0.00500197  0.21058659  0.58516998    -0.38830
C1101       C  0.18752760  0.40283368  0.93450017    -0.05500
C1102       C  0.20431424  0.38445181  0.94796313    -0.02620
C1103       C  0.19807015  0.35650501  0.94908460     0.02370
C1104       C  0.17470402  0.34672977  0.93697103    -0.05500
C1105       C  0.15819831  0.36530213  0.92323727    -0.02600
C1106       C  0.16412021  0.39309568  0.92289526     0.02370
C1107       C  0.22789940  0.39445584  0.96091280     0.37020
C1108       C  0.13458264  0.35594941  0.90960558     0.37010
C1109       C  0.14590653  0.41198569  0.91051622     0.35430
C1110       C  0.21524464  0.33802212  0.96334053     0.35430
N1111       N  0.13105401  0.42695869  0.90104878    -0.39390
N1112       N  0.22880554  0.32296113  0.97453606    -0.39390
N1113       N  0.11566030  0.34903411  0.89859215    -0.38830
N1114       N  0.24657729  0.40248456  0.97156483    -0.38830
C1115       C  0.18909517  0.09751834  0.93337993    -0.05500
C1116       C  0.20377660  0.12109349  0.92655457    -0.02620
C1117       C  0.19377532  0.14729382  0.93153578     0.02370
C1118       C  0.16775162  0.15052126  0.94026069    -0.05500
C1119       C  0.15199800  0.12667151  0.94333563    -0.02600
C1120       C  0.16344416  0.10070189  0.94258281     0.02370
C1121       C  0.22848944  0.11876922  0.91245424     0.37020
C1122       C  0.12352353  0.12799831  0.94503265     0.37010
C1123       C  0.14797490  0.07693288  0.94893008     0.35430
C1124       C  0.20952608  0.17081579  0.92518594     0.35430
N1125       N  0.13572838  0.05798944  0.95412881    -0.39390
N1126       N  0.22208884  0.18950095  0.91984676    -0.39390
N1127       N  0.10082533  0.12877314  0.94625385    -0.38830
N1128       N  0.24791950  0.11751141  0.90070575    -0.38830
C1129       C  0.19611840  0.34783051  0.54383602    -0.05500
C1130       C  0.18720625  0.37140925  0.53017664    -0.02620
C1131       C  0.19554811  0.39735231  0.53839474     0.02370
C1132       C  0.21177125  0.40001350  0.56102040    -0.05500
C1133       C  0.22365123  0.37637722  0.57211371    -0.02600
C1134       C  0.21591944  0.35038277  0.56334034     0.02370
C1135       C  0.16744991  0.36953730  0.50924174     0.37020
C1136       C  0.24289929  0.37845264  0.59356935     0.37010
C1137       C  0.22643470  0.32638926  0.57620259     0.35430
C1138       C  0.18565966  0.42129402  0.52493452     0.35430
N1139       N  0.23482763  0.30728718  0.58653170    -0.39390
N1140       N  0.17785094  0.44032933  0.01403501    -0.39390
N1141       N  0.25796311  0.37966565  0.61097475    -0.38830
N1142       N  0.15115829  0.36896701  0.99300758    -0.38830
C1143       C  0.20458584  0.09925207  0.56359592    -0.05500
C1144       C  0.21731944  0.12297970  0.57358465    -0.02620
C1145       C  0.20918044  0.14895954  0.56519908     0.02370
C1146       C  0.18796593  0.15158454  0.54730105    -0.05500
C1147       C  0.17691954  0.12779679  0.53556079    -0.02600
C1148       C  0.18559939  0.10183751  0.54332450     0.02370
C1149       C  0.23827093  0.12101569  0.59335464     0.37020
C1150       C  0.15491382  0.12966934  0.51711323     0.37010
C1151       C  0.17340316  0.07782396  0.53203479     0.35430
C1152       C  0.22107697  0.17295992  0.57682847     0.35430
N1153       N  0.16365680  0.05871293  0.52297829    -0.39390
N1154       N  0.23055447  0.19206515  0.58619101    -0.39390
N1155       N  0.13661929  0.13111169  0.50334289    -0.38830
N1156       N  0.25480487  0.11987822  0.60932984    -0.38830
C1157       C  0.05490675  0.30310004  0.91174856    -0.05500
C1158       C  0.07429725  0.29640399  0.89263290    -0.02620
C1159       C  0.06962846  0.30086534  0.86494923     0.02370
C1160       C  0.04641023  0.31394770  0.85630887    -0.05500
C1161       C  0.02753865  0.32141798  0.87592155    -0.02600
C1162       C  0.03138929  0.31510587  0.90309716     0.02370
C1163       C  0.09997227  0.28732017  0.90154442     0.37020
C1164       C  0.00558033  0.33889968  0.86927739     0.37010
C1165       C  0.01234282  0.32391330  0.92276722     0.35430
C1166       C  0.08975817  0.29440170  0.84566332     0.35430
N1167       N  0.49733302  0.33103402  0.93851076    -0.39390
N1168       N  0.10584352  0.28931073  0.83025703    -0.39390
N1169       N  0.48853034  0.35388882  0.86539391    -0.38830
N1170       N  0.12085822  0.28109044  0.90850408    -0.38830
C1171       C  0.07556079  0.30691553  0.61297588    -0.05500
C1172       C  0.06300115  0.28902807  0.63116713    -0.02620
C1173       C  0.06347174  0.29402862  0.65901194     0.02370
C1174       C  0.07335673  0.31846486  0.66895365    -0.05500
C1175       C  0.08861256  0.33465008  0.65189563    -0.02600
C1176       C  0.08977293  0.32910217  0.62418371     0.02370
C1177       C  0.04825611  0.26595831  0.62211104     0.37020
C1178       C  0.10268118  0.35759723  0.66310250     0.37010
C1179       C  0.10441215  0.34755284  0.60747431     0.35430
C1180       C  0.05352476  0.27427425  0.67767939     0.35430
N1181       N  0.11615685  0.36244144  0.59438450    -0.39390
N1182       N  0.04625148  0.25871476  0.69314795    -0.39390
N1183       N  0.11406757  0.37567977  0.67223225    -0.38830
N1184       N  0.03577419  0.24724021  0.61672878    -0.38830
C1185       C  0.04220991  0.19372400  0.85738288    -0.05500
C1186       C  0.06570347  0.20609703  0.86606248    -0.02620
C1187       C  0.07015043  0.21077236  0.89366652     0.02370
C1188       C  0.05004318  0.20575277  0.91242723    -0.05500
C1189       C  0.02591344  0.19527321  0.90355776    -0.02600
C1190       C  0.02241668  0.18819370  0.87651984     0.02370
C1191       C  0.08615009  0.21175804  0.84692863     0.37020
C1192       C  0.00610191  0.18813095  0.92299466     0.37010
C1193       C  0.00016606  0.17133021  0.86961126     0.35430
C1194       C  0.09621783  0.21813362  0.90293711     0.35430
N1195       N  0.98338072  0.15627516  0.86506124    -0.39390
N1196       N  0.11729698  0.22301611  0.91031647    -0.39390
N1197       N  0.99076289  0.18201567  0.93875836    -0.38830
N1198       N  0.10242648  0.21638059  0.83162871    -0.38830
C1199       C  0.05977702  0.18586227  0.66347554    -0.05500
C1200       C  0.04595759  0.17273449  0.64201383    -0.02620
C1201       C  0.05231281  0.17802735  0.61541751     0.02370
C1202       C  0.07039717  0.19832326  0.60943870    -0.05500
C1203       C  0.08428501  0.21161544  0.63026250    -0.02600
C1204       C  0.07918196  0.20514748  0.65730724     0.02370
C1205       C  0.02443185  0.15403802  0.64668247     0.37020
C1206       C  0.10380290  0.23181286  0.62375214     0.37010
C1207       C  0.09417486  0.21781162  0.67859999     0.35430
C1208       C  0.04027823  0.16228505  0.59397115     0.35430
N1209       N  0.10615019  0.22798220  0.69560876    -0.39390
N1210       N  0.03077628  0.14974579  0.57690362    -0.39390
N1211       N  0.11928984  0.24801221  0.61846456    -0.38830
N1212       N  0.00741453  0.13891670  0.64986710    -0.38830
N1213       N  0.16395127  0.71608709  0.02678060    -0.06280
N1214       N  0.18477997  0.70127849  0.03378818    -0.58400
N1215       N  0.13234645  0.70209530  0.47148393    -0.05960
N1216       N  0.13314411  0.67912636  0.45871251    -0.60530
N1217       N  0.15419640  0.71589815  0.46843912    -0.05560
N1218       N  0.17086114  0.70074513  0.45441197    -0.58380
N1219       N  0.14243860  0.70197764  0.03132058    -0.05240
N1220       N  0.14806181  0.67885094  0.04268894    -0.60880
C1221       C  0.17429700  0.67811019  0.04385259     0.95900
C1222       C  0.15698400  0.67778385  0.44812987     0.95670
N1223       N  0.05633220  0.72430913  0.48071659    -0.06470
N1224       N  0.04351616  0.72679718  0.45770567    -0.58980
N1225       N  0.08377512  0.70542212  0.04104030    -0.04590
N1226       N  0.08900515  0.69339896  0.06396462    -0.60230
N1227       N  0.06573834  0.72411128  0.04384449    -0.06500
N1228       N  0.05840511  0.72535847  0.06901208    -0.59250
N1229       N  0.07439719  0.70550794  0.47869384    -0.04230
N1230       N  0.07440760  0.69501770  0.45445368    -0.60320
Mn1231     Mn  0.10778709  0.70365741  0.00589098     1.18440
C1232       C  0.05507196  0.70836932  0.44158541     0.97980
C1233       C  0.07319919  0.70623161  0.08124526     0.98640
N1234       N  0.15669244  0.78491131  0.46844530    -0.06520
N1235       N  0.17418442  0.79727503  0.45304568    -0.62820
N1236       N  0.14640535  0.80083714  0.03157434    -0.05320
N1237       N  0.15424532  0.82394482  0.04170120    -0.63500
N1238       N  0.16666475  0.78484615  0.02654844    -0.06020
N1239       N  0.18876907  0.79818784  0.03214430    -0.63090
N1240       N  0.13652191  0.80126834  0.47199207    -0.04920
N1241       N  0.13903562  0.82343702  0.45815689    -0.63780
Mn1242     Mn  0.16163216  0.75036920  0.49729271     1.10660
C1243       C  0.16232710  0.82118283  0.44633602     0.99200
C1244       C  0.18046745  0.82248877  0.04177897     0.99280
N1245       N  0.06698533  0.78514777  0.04464023    -0.06030
N1246       N  0.05902113  0.78445072  0.06978735    -0.61400
N1247       N  0.07822991  0.80271230  0.47877053    -0.05350
N1248       N  0.07974088  0.81229972  0.45422455    -0.58130
N1249       N  0.05868691  0.78557851  0.48068427    -0.06660
N1250       N  0.04639676  0.78343207  0.45731683    -0.60970
N1251       N  0.08663317  0.80202932  0.04235645    -0.05650
N1252       N  0.09230624  0.81309290  0.06574673    -0.58160
Mn1253     Mn  0.06038167  0.75488604  0.01265187     1.20190
Mn1254     Mn  0.11142706  0.80196772  0.50657100     1.10090
Cl1255     Cl  0.11100519  0.75276501  0.00565786    -0.86130
C1256       C  0.07487604  0.80222282  0.08294774     0.96210
C1257       C  0.05982550  0.80017437  0.44102707     0.96000
N1258       N  0.44114854  0.72658581  0.03522482    -0.06280
N1259       N  0.45064292  0.73030576  0.05966389    -0.58400
N1260       N  0.42321872  0.70539577  0.47207769    -0.05960
N1261       N  0.41913944  0.69354952  0.44883821    -0.60530
N1262       N  0.44013579  0.72523558  0.46987285    -0.05560
N1263       N  0.44734583  0.72749250  0.44446590    -0.58380
N1264       N  0.42317206  0.70763133  0.03557264    -0.05240
N1265       N  0.42000722  0.69824580  0.06002493    -0.60880
C1266       C  0.43731953  0.71246462  0.07493533     0.95900
C1267       C  0.43424926  0.70721352  0.43165224     0.95670
N1268       N  0.34166000  0.71357287  0.47414996    -0.06470
N1269       N  0.32277876  0.69653017  0.46616453    -0.58980
N1270       N  0.36422407  0.70196705  0.03344946    -0.04590
N1271       N  0.36151653  0.67920776  0.04632374    -0.60230
N1272       N  0.34204622  0.71578926  0.03280389    -0.06500
N1273       N  0.32343752  0.70116003  0.04462009    -0.59250
N1274       N  0.36434722  0.70074163  0.47310005    -0.04230
N1275       N  0.36145949  0.67662232  0.46288192    -0.60320
Mn1276     Mn  0.39435819  0.70397531  0.00363453     1.18440
C1277       C  0.33573687  0.67336066  0.45894528     0.97980
C1278       C  0.33634996  0.67855333  0.05355577     0.98640
N1279       N  0.43924099  0.78643922  0.47021677    -0.06520
N1280       N  0.45087413  0.78612214  0.44667476    -0.62820
N1281       N  0.41783012  0.80460972  0.03293093    -0.05320
N1282       N  0.41439027  0.81597982  0.05656040    -0.63500
N1283       N  0.43787529  0.78793921  0.03363493    -0.06020
N1284       N  0.44828178  0.78780808  0.05792164    -0.63090
N1285       N  0.41945113  0.80329993  0.46985994    -0.04920
N1286       N  0.41739964  0.81485416  0.44626188    -0.63780
Mn1287     Mn  0.44128783  0.75637788  0.00219863     1.10660
C1288       C  0.43714896  0.80420583  0.43169635     0.99200
C1289       C  0.43369467  0.80560454  0.07224442     0.99280
N1290       N  0.33784717  0.78469852  0.03030335    -0.06030
N1291       N  0.31736129  0.79611779  0.04233164    -0.61400
N1292       N  0.35976805  0.79832679  0.46903082    -0.05350
N1293       N  0.35441617  0.82105935  0.45689517    -0.58130
N1294       N  0.33841693  0.78338982  0.47183430    -0.06660
N1295       N  0.31777717  0.79787549  0.46359210    -0.60970
N1296       N  0.35743383  0.80218306  0.02955917    -0.05650
N1297       N  0.35120758  0.82470709  0.04177193    -0.58160
Mn1298     Mn  0.33885468  0.74937146  0.00225833     1.20190
Mn1299     Mn  0.38889936  0.80229656  0.00039849     1.10090
Cl1300     Cl  0.39052983  0.75306717  0.00220154    -0.86130
C1301       C  0.32647279  0.82096891  0.04963624     0.96210
C1302       C  0.32837350  0.82132780  0.45424096     0.96000
N1303       N  0.22502379  0.53473420  0.08774591    -0.06280
N1304       N  0.21707950  0.54929595  0.06682778    -0.58400
N1305       N  0.28137799  0.55122920  0.11131903    -0.05960
N1306       N  0.29392923  0.57386412  0.10707628    -0.60530
N1307       N  0.28277397  0.53494451  0.09045276    -0.05560
N1308       N  0.29553686  0.54749322  0.07096844    -0.58380
N1309       N  0.22215462  0.54953518  0.10958318    -0.05240
N1310       N  0.21103554  0.57278453  0.10413718    -0.60880
C1311       C  0.20831144  0.57295333  0.07764409     0.95900
C1312       C  0.30274198  0.57154717  0.08217434     0.95670
N1313       N  0.28316568  0.53136984  0.18998623    -0.06470
N1314       N  0.30736379  0.53025573  0.19991868    -0.58980
N1315       N  0.21994032  0.54972663  0.17077290    -0.04590
N1316       N  0.19690495  0.56209134  0.16925660    -0.60230
N1317       N  0.22006096  0.53170783  0.18982352    -0.06500
N1318       N  0.19682640  0.53137893  0.20142151    -0.59250
N1319       N  0.28179705  0.55032200  0.17180023    -0.04230
N1320       N  0.30463222  0.56261878  0.16942103    -0.60320
Mn1321     Mn  0.25109785  0.55029696  0.14134171     1.18440
C1322       C  0.32055104  0.55035555  0.18734276     0.97980
C1323       C  0.18238145  0.55066436  0.18868016     0.98640
N1324       N  0.28349970  0.96545456  0.09112887    -0.06520
N1325       N  0.29552904  0.95089279  0.07232399    -0.62820
N1326       N  0.22337052  0.95047425  0.10874162    -0.05320
N1327       N  0.21444293  0.92640675  0.10245166    -0.63500
N1328       N  0.22613027  0.96551996  0.08715379    -0.06020
N1329       N  0.22044128  0.95055934  0.06575262    -0.63090
N1330       N  0.28261440  0.95084212  0.11306099    -0.04920
N1331       N  0.29501062  0.92798585  0.11027654    -0.63120
Mn1332     Mn  0.25449001  0.50021017  0.08799383     1.10660
C1333       C  0.30314779  0.92763834  0.08513207     0.99200
C1334       C  0.21316295  0.92620452  0.07581480     0.99280
N1335       N  0.21972256  0.97023566  0.18909131    -0.06030
N1336       N  0.19608513  0.97176328  0.19959404    -0.61400
N1337       N  0.28164709  0.95053257  0.17254573    -0.05350
N1338       N  0.30426914  0.93750209  0.17094651    -0.58130
N1339       N  0.28256851  0.96901061  0.19127713    -0.06660
N1340       N  0.30607940  0.96883111  0.20292340    -0.60970
N1341       N  0.21967640  0.95219069  0.16989513    -0.05650
N1342       N  0.19625690  0.94090284  0.16710058    -0.58160
Mn1343     Mn  0.25156594  0.00060948  0.19158623     1.20190
Mn1344     Mn  0.25150090  0.95113879  0.14150259     1.10090
Cl1345     Cl  0.25215897  0.00063285  0.13997767    -0.86130
C1346       C  0.18165232  0.95315980  0.18595317     0.96210
C1347       C  0.31930360  0.94872279  0.19024843     0.96000
N1348       N  0.21497722  0.53036739  0.31522970    -0.06280
N1349       N  0.19137981  0.53016454  0.30366981    -0.58400
N1350       N  0.27774059  0.55066419  0.33546322    -0.05960
N1351       N  0.30040871  0.56369085  0.33724837    -0.60530
N1352       N  0.27810374  0.53275782  0.31610599    -0.05560
N1353       N  0.30138073  0.53316659  0.30462647    -0.58380
N1354       N  0.21588353  0.54929154  0.33355968    -0.05240
N1355       N  0.19325208  0.56233810  0.33474495    -0.60880
C1356       C  0.17800320  0.55059397  0.31583699     0.95900
C1357       C  0.31516177  0.55286147  0.31761316     0.95670
N1358       N  0.27493060  0.53366675  0.41789127    -0.06470
N1359       N  0.28694212  0.54461714  0.43893509    -0.58980
N1360       N  0.21560812  0.54793385  0.39301998    -0.04590
N1361       N  0.20252856  0.57039626  0.39604911    -0.60230
N1362       N  0.21671358  0.53369961  0.41524410    -0.06500
N1363       N  0.20561861  0.54829582  0.43457713    -0.59250
N1364       N  0.27485784  0.55095428  0.39781624    -0.04230
N1365       N  0.28712343  0.57332969  0.40465249    -0.60320
Mn1366     Mn  0.24636189  0.54983415  0.36464450     1.18440
C1367       C  0.29470143  0.56920012  0.43004245     0.97980
C1368       C  0.19673316  0.57102785  0.42178024     0.98640
N1369       N  0.28071237  0.97094139  0.31526860    -0.06520
N1370       N  0.30409468  0.97262757  0.30392406    -0.62820
N1371       N  0.22017158  0.94808694  0.33428134    -0.05320
N1372       N  0.19849219  0.93365679  0.33677511    -0.63500
N1373       N  0.21736476  0.96696368  0.31613058    -0.06020
N1374       N  0.19315869  0.96575288  0.30619864    -0.63090
N1375       N  0.28131201  0.95243811  0.33394719    -0.04920
N1376       N  0.30462510  0.94083594  0.33547488    -0.63780
Mn1377     Mn  0.24752999  0.50023144  0.31400813     1.10660
C1378       C  0.31861866  0.95334551  0.31648385     0.99200
C1379       C  0.18179765  0.94437442  0.31874680     0.99280
N1380       N  0.21898019  0.96412869  0.41507640    -0.06030
N1381       N  0.20558409  0.95138621  0.43401418    -0.61400
N1382       N  0.28084643  0.95243364  0.39466329    -0.05350
N1383       N  0.29321683  0.92967685  0.39917485    -0.58130
N1384       N  0.27699442  0.96596075  0.41704985    -0.06660
N1385       N  0.28517344  0.95078467  0.43742507    -0.60970
N1386       N  0.22118753  0.94798026  0.39422624    -0.05650
N1387       N  0.20856123  0.92528704  0.39778989    -0.58160
Mn1388     Mn  0.24667296  0.49939572  0.41746934     1.20190
Mn1389     Mn  0.25105964  0.95029261  0.36395176     1.10090
Cl1390     Cl  0.24789424  0.49998189  0.36521258    -0.86130
C1391       C  0.19884576  0.92737787  0.42231845     0.96210
C1392       C  0.29533965  0.92822702  0.42566148     0.96000
N1393       N  0.03008009  0.67099738  0.22493272    -0.06280
N1394       N  0.04268560  0.68998843  0.21115667    -0.58400
N1395       N  0.47243432  0.65236354  0.20376078    -0.05960
N1396       N  0.46015639  0.65828170  0.18128703    -0.60530
N1397       N  0.47109847  0.67281716  0.22062617    -0.05560
N1398       N  0.45865126  0.69341196  0.20896646    -0.58380
N1399       N  0.03342821  0.64773088  0.21262999    -0.05240
N1400       N  0.05047250  0.64967753  0.19345715    -0.60880
C1401       C  0.05533437  0.67602735  0.19132164     0.95900
C1402       C  0.45118495  0.68365274  0.18458424     0.95670
N1403       N  0.46877830  0.56991710  0.22076941    -0.06470
N1404       N  0.44589884  0.55758703  0.21862315    -0.58980
N1405       N  0.03146788  0.58782859  0.20709705    -0.04590
N1406       N  0.05427435  0.58825060  0.19471125    -0.60230
N1407       N  0.03080062  0.56816780  0.22442871    -0.06500
N1408       N  0.05333432  0.55475056  0.22403550    -0.59250
N1409       N  0.47003763  0.58962091  0.20329984    -0.04230
N1410       N  0.44819949  0.59095038  0.18883999    -0.60320
Mn1411     Mn  0.00160123  0.61940072  0.20631956     1.18440
C1412       C  0.43330512  0.57057924  0.19836937     0.97980
C1413       C  0.06802465  0.56736115  0.20518652     0.98640
N1414       N  0.46605667  0.67074988  0.28768038    -0.06520
N1415       N  0.45208480  0.68989477  0.30011444    -0.62820
N1416       N  0.02476801  0.64892109  0.30689090    -0.05320
N1417       N  0.03547112  0.65336583  0.33038679    -0.63500
N1418       N  0.02447497  0.67116190  0.29241135    -0.06020
N1419       N  0.03351872  0.69157802  0.30727928    -0.63090
N1420       N  0.46453419  0.64810463  0.30143332    -0.04920
N1421       N  0.44850618  0.65081760  0.32142122    -0.63780
Mn1422     Mn  0.49789372  0.67280101  0.25631512     1.10660
C1423       C  0.44073342  0.67672218  0.32110727     0.99200
C1424       C  0.04069905  0.67988172  0.33087696     0.99280
N1425       N  0.02801227  0.56830891  0.28606426    -0.06030
N1426       N  0.05157279  0.55705922  0.28644343    -0.61400
N1427       N  0.46495087  0.58583026  0.30110339    -0.05350
N1428       N  0.44248993  0.58492252  0.31411446    -0.58130
N1429       N  0.46566681  0.56704367  0.28265156    -0.06660
N1430       N  0.44347110  0.55305871  0.28265945    -0.60970
N1431       N  0.02684177  0.58735989  0.30432766    -0.05650
N1432       N  0.04947257  0.58944412  0.31741191    -0.58160
Mn1433     Mn  0.99824073  0.56691724  0.25350566     1.20190
Mn1434     Mn  0.99522061  0.61730349  0.30360750     1.10090
Cl1435     Cl  0.99795467  0.61925487  0.25495532    -0.86130
C1436       C  0.06472751  0.57022018  0.30624736     0.96210
C1437       C  0.42915877  0.56414559  0.30272404     0.96000
N1438       N  0.03243025  0.93985814  0.22563485    -0.06280
N1439       N  0.05503758  0.95314426  0.22528616    -0.58400
N1440       N  0.47080242  0.92053962  0.20480122    -0.05960
N1441       N  0.44849158  0.91915516  0.19108833    -0.60530
N1442       N  0.46943727  0.93899979  0.22365632    -0.05560
N1443       N  0.44569750  0.95011253  0.22334239    -0.58380
N1444       N  0.03237135  0.92110406  0.20710750    -0.05240
N1445       N  0.05465926  0.92122598  0.19382925    -0.60880
C1446       C  0.06873829  0.94148104  0.20506587     0.95900
C1447       C  0.43306931  0.93812720  0.20238210     0.95670
N1448       N  0.47239198  0.83694901  0.21904623    -0.06470
N1449       N  0.45817849  0.81768412  0.20711636    -0.58980
N1450       N  0.03229884  0.85929367  0.20704173    -0.04590
N1451       N  0.04920110  0.85627654  0.18770621    -0.60230
N1452       N  0.03240187  0.83816437  0.22308071    -0.06500
N1453       N  0.04918371  0.81984837  0.21372081    -0.59250
N1454       N  0.47258064  0.85849662  0.20358256    -0.04230
N1455       N  0.45813814  0.85479742  0.18206891    -0.60320
Mn1456     Mn  0.50199141  0.89005128  0.20534233     1.18440
C1457       C  0.44890615  0.82956807  0.18424959     0.97980
C1458       C  0.05996376  0.83189021  0.19184910     0.98640
N1459       N  0.46834791  0.93890712  0.28538566    -0.06520
N1460       N  0.44547177  0.95179084  0.28531663    -0.62820
N1461       N  0.02938253  0.91824452  0.30613753    -0.05320
N1462       N  0.05170296  0.91509026  0.31953336    -0.63500
N1463       N  0.03142119  0.93723758  0.28802219    -0.06020
N1464       N  0.05561841  0.94712389  0.28877215    -0.63090
N1465       N  0.46795290  0.91920506  0.30283569    -0.04920
N1466       N  0.44516669  0.91828116  0.31509002    -0.63780
Mn1467     Mn  0.50050533  0.94033816  0.25574773     1.10660
C1468       C  0.43130692  0.93879749  0.30419260     0.99200
C1469       C  0.06794334  0.93353129  0.30893676     0.99280
N1470       N  0.02787565  0.83541064  0.29081939    -0.06030
N1471       N  0.03683343  0.81500081  0.30582028    -0.61400
N1472       N  0.46811603  0.85683099  0.30163554    -0.05350
N1473       N  0.45361348  0.85156575  0.32246154    -0.58130
N1474       N  0.46974546  0.83545454  0.28591088    -0.06660
N1475       N  0.45752218  0.81472929  0.29728404    -0.60970
N1476       N  0.02866271  0.85767426  0.30531094    -0.05650
N1477       N  0.03997807  0.85345769  0.32850070    -0.58160
Mn1478     Mn  0.50072177  0.83516510  0.25444399     1.20190
Mn1479     Mn  0.49831817  0.88829984  0.30396693     1.10090
Cl1480     Cl  0.50034659  0.88827457  0.25484611    -0.86130
C1481       C  0.04470818  0.82692206  0.32928007     0.96210
C1482       C  0.44701319  0.82545933  0.31989463     0.96000
C1483       C  0.34749417  0.94959600  0.31374028    -0.05500
C1484       C  0.35783543  0.92382520  0.30791624    -0.02620
C1485       C  0.38522279  0.92020360  0.30557493     0.02370
C1486       C  0.40253118  0.94246578  0.30833553    -0.05500
C1487       C  0.39237245  0.96752318  0.31691134    -0.02600
C1488       C  0.36500591  0.97067756  0.32067151     0.02370
C1489       C  0.34040877  0.90068379  0.30586887     0.37020
C1490       C  0.41040304  0.98882387  0.32475521     0.37010
C1491       C  0.35534186  0.99295714  0.33655816     0.35430
C1492       C  0.39551324  0.89333117  0.30100386     0.35430
N1493       N  0.34744956  0.50944698  0.35079880    -0.39390
N1494       N  0.40380581  0.87187020  0.29735446    -0.39390
N1495       N  0.42521842  0.50531756  0.33136214    -0.38830
N1496       N  0.32654459  0.88217922  0.30454653    -0.38830
C1497       C  0.15286393  0.93836548  0.31865333    -0.05500
C1498       C  0.14165632  0.92009405  0.30007887    -0.02620
C1499       C  0.11393817  0.91784270  0.29749810     0.02370
C1500       C  0.09713722  0.93338958  0.31393816    -0.05500
C1501       C  0.10845328  0.94862103  0.33498903    -0.02600
C1502       C  0.13614312  0.95153161  0.33704162     0.02370
C1503       C  0.15865255  0.90349689  0.28374818     0.37020
C1504       C  0.09163837  0.96120103  0.35462292     0.37010
C1505       C  0.14744912  0.96922190  0.35723342     0.35430
C1506       C  0.10264015  0.89995237  0.27748702     0.35430
N1507       N  0.15656249  0.98336566  0.37325853    -0.39390
N1508       N  0.09357821  0.88574818  0.26148458    -0.39390
N1509       N  0.07823454  0.97114554  0.37040310    -0.38830
N1510       N  0.17224847  0.89017536  0.27078354    -0.38830
C1511       C  0.34439274  0.55759774  0.31399225    -0.05500
C1512       C  0.35652222  0.54843764  0.29042774    -0.02620
C1513       C  0.38409957  0.54685707  0.28839229     0.02370
C1514       C  0.40047923  0.55856018  0.30808669    -0.05500
C1515       C  0.38874475  0.56679415  0.33228115    -0.02600
C1516       C  0.36094763  0.56732124  0.33492121     0.02370
C1517       C  0.34022363  0.54219323  0.26764682     0.37020
C1518       C  0.40531993  0.57123451  0.35559857     0.37010
C1519       C  0.34978821  0.57779001  0.35932433     0.35430
C1520       C  0.39535625  0.52896698  0.26882540     0.35430
N1521       N  0.34104548  0.58666688  0.37869105    -0.39390
N1522       N  0.40487034  0.51317492  0.25489628    -0.39390
N1523       N  0.41851429  0.57447812  0.37427986    -0.38830
N1524       N  0.32527809  0.53827118  0.25064447    -0.38830
C1525       C  0.09336814  0.56598575  0.31210996    -0.05500
C1526       C  0.10339062  0.53957156  0.31135736    -0.02620
C1527       C  0.13063123  0.53502878  0.30954101     0.02370
C1528       C  0.14886803  0.55627184  0.31329443    -0.05500
C1529       C  0.13871034  0.58276899  0.31713202    -0.02600
C1530       C  0.11118982  0.58772564  0.31560206     0.02370
C1531       C  0.08526254  0.51699935  0.31252948     0.37020
C1532       C  0.15652389  0.60530049  0.32125161     0.37010
C1533       C  0.10150982  0.61526235  0.31700973     0.35430
C1534       C  0.13919545  0.50893243  0.30089406     0.35430
N1535       N  0.09407172  0.63735910  0.31816755    -0.39390
N1536       N  0.14523166  0.98845107  0.29187490    -0.39390
N1537       N  0.17069133  0.62330853  0.32462798    -0.38830
N1538       N  0.06987631  0.49984354  0.31321626    -0.38830
C1539       C  0.34837369  0.94435850  0.19209787    -0.05500
C1540       C  0.36525570  0.95549777  0.17266909    -0.02620
C1541       C  0.39293009  0.95294258  0.17540411     0.02370
C1542       C  0.40393214  0.93947942  0.19769166    -0.05500
C1543       C  0.38698114  0.92558527  0.21500544    -0.02600
C1544       C  0.35939101  0.92870760  0.21285318     0.02370
C1545       C  0.35414080  0.97001112  0.15011475     0.37020
C1546       C  0.39821483  0.90518278  0.23221664     0.37010
C1547       C  0.34217688  0.91518173  0.23133598     0.35430
C1548       C  0.41001973  0.96345517  0.15493244     0.35430
N1549       N  0.32791886  0.90447177  0.24569119    -0.39390
N1550       N  0.42367563  0.97177149  0.13854761    -0.39390
N1551       N  0.40844666  0.88810264  0.24408843    -0.38830
N1552       N  0.34520868  0.98152113  0.13209893    -0.38830
C1553       C  0.15276398  0.94900301  0.18996503    -0.05500
C1554       C  0.14254317  0.95248775  0.21567176    -0.02620
C1555       C  0.11528726  0.95267915  0.21994634     0.02370
C1556       C  0.09740716  0.94606009  0.19920965    -0.05500
C1557       C  0.10768673  0.94126141  0.17335549    -0.02600
C1558       C  0.13513086  0.94320610  0.16865834     0.02370
C1559       C  0.16056245  0.95423577  0.23806644     0.37020
C1560       C  0.09007036  0.93510860  0.15123797     0.37010
C1561       C  0.14494067  0.93949651  0.14182355     0.35430
C1562       C  0.10613848  0.96048808  0.24581488     0.35430
N1563       N  0.15261367  0.93645879  0.12035016    -0.39390
N1564       N  0.09950526  0.96783410  0.26651154    -0.39390
N1565       N  0.07611172  0.93008168  0.13354386    -0.38830
N1566       N  0.17628310  0.95524815  0.25478918    -0.38830
C1567       C  0.40517158  0.56515098  0.19088889    -0.05500
C1568       C  0.38784233  0.58565264  0.18197956    -0.02620
C1569       C  0.36039361  0.58077119  0.18048434     0.02370
C1570       C  0.34974560  0.55562913  0.18908373    -0.05500
C1571       C  0.36760800  0.53520509  0.19741955    -0.02600
C1572       C  0.39489387  0.53932042  0.19568654     0.02370
C1573       C  0.39800912  0.61171767  0.17398463     0.37020
C1574       C  0.35885572  0.51120677  0.21097797     0.37010
C1575       C  0.41292276  0.51682537  0.19818187     0.35430
C1576       C  0.34330415  0.60242182  0.17126974     0.35430
N1577       N  0.42861768  0.50005214  0.20025447    -0.39390
N1578       N  0.32988415  0.61978402  0.16375568    -0.39390
N1579       N  0.35303157  0.49295473  0.22400595    -0.38830
N1580       N  0.40599219  0.63245543  0.16719909    -0.38830
C1581       C  0.15311637  0.55558143  0.19278694    -0.05500
C1582       C  0.13786841  0.57172175  0.17492163    -0.02620
C1583       C  0.11032026  0.57505018  0.17847444     0.02370
C1584       C  0.09709865  0.56228832  0.19992965    -0.05500
C1585       C  0.11234194  0.54587953  0.21729109    -0.02600
C1586       C  0.13985386  0.54319984  0.21427930     0.02370
C1587       C  0.15014799  0.58533641  0.15265592     0.37020
C1588       C  0.09965148  0.53150235  0.23848988     0.37010
C1589       C  0.15473626  0.52837325  0.23412992     0.35430
C1590       C  0.09575467  0.59140907  0.15936590     0.35430
N1591       N  0.16787706  0.51701430  0.24932735    -0.39390
N1592       N  0.08435375  0.60453222  0.14403837    -0.39390
N1593       N  0.08811612  0.52036745  0.25480673    -0.38830
N1594       N  0.15962614  0.59640791  0.13484473    -0.38830
C1595       C  0.31187041  0.84425129  0.06077299    -0.05500
C1596       C  0.32066324  0.85338381  0.08576357    -0.02620
C1597       C  0.32153796  0.88123838  0.09151367     0.02370
C1598       C  0.30999475  0.90047178  0.07375421    -0.05500
C1599       C  0.29876033  0.89091514  0.04958058    -0.02600
C1600       C  0.29982838  0.86292281  0.04314871     0.02370
C1601       C  0.32949711  0.83372655  0.10539353     0.37020
C1602       C  0.28601834  0.90970294  0.03150225     0.37010
C1603       C  0.28779776  0.85299249  0.01879849     0.35430
C1604       C  0.33466188  0.88995705  0.11595375     0.35430
N1605       N  0.27765417  0.84496649  0.49962267    -0.39390
N1606       N  0.34508437  0.89682259  0.13544669    -0.39390
N1607       N  0.27607227  0.92509343  0.01726981    -0.38830
N1608       N  0.33629541  0.81795919  0.12104003    -0.38830
C1609       C  0.31355638  0.59592470  0.06914679    -0.05500
C1610       C  0.29695914  0.61264636  0.05349991    -0.02620
C1611       C  0.30242870  0.64068368  0.05068733     0.02370
C1612       C  0.32533624  0.65197194  0.06247431    -0.05500
C1613       C  0.34191312  0.63482364  0.07802042    -0.02600
C1614       C  0.33621344  0.60715920  0.08094855     0.02370
C1615       C  0.27405640  0.60092126  0.04061108     0.37020
C1616       C  0.36504205  0.64540042  0.09161512     0.37010
C1617       C  0.35349211  0.59006533  0.09692994     0.35430
C1618       C  0.28407375  0.65785894  0.03640097     0.35430
N1619       N  0.36721435  0.57641926  0.10961790    -0.39390
N1620       N  0.26902944  0.67167108  0.02559011    -0.39390
N1621       N  0.38377600  0.65286937  0.10259372    -0.38830
N1622       N  0.25599416  0.59129950  0.03012062    -0.38830
C1623       C  0.29880956  0.90119960  0.43821806    -0.05500
C1624       C  0.28626621  0.87812822  0.42657995    -0.02620
C1625       C  0.29425423  0.85170895  0.43352708     0.02370
C1626       C  0.31490165  0.84801322  0.45185296    -0.05500
C1627       C  0.32547930  0.87105484  0.46551645    -0.02600
C1628       C  0.31729227  0.89744668  0.45874923     0.02370
C1629       C  0.26570460  0.88125389  0.40654530     0.37020
C1630       C  0.34564934  0.86809512  0.48598549     0.37010
C1631       C  0.32938022  0.92078154  0.47148913     0.35430
C1632       C  0.28255527  0.82843889  0.42034581     0.35430
N1633       N  0.33906742  0.93934975  0.48166034    -0.39390
N1634       N  0.27320824  0.80992172  0.40976572    -0.39390
N1635       N  0.36207411  0.86638555  0.50202153    -0.38830
N1636       N  0.24954542  0.88328467  0.39027093    -0.38830
C1637       C  0.32473501  0.64507272  0.45523927    -0.05500
C1638       C  0.34224393  0.62246391  0.45162808    -0.02620
C1639       C  0.33240982  0.59643543  0.44596096     0.02370
C1640       C  0.30541567  0.59167678  0.44632012    -0.05500
C1641       C  0.28846204  0.61233133  0.45507100    -0.02600
C1642       C  0.29756808  0.63929754  0.45767279     0.02370
C1643       C  0.37052264  0.62478448  0.45457671     0.37020
C1644       C  0.26216210  0.60514762  0.46314008     0.37010
C1645       C  0.27875584  0.66070674  0.46243036     0.35430
C1646       C  0.35012359  0.57424506  0.43975362     0.35430
N1647       N  0.26357593  0.67776701  0.46595136    -0.39390
N1648       N  0.36425808  0.55660754  0.43481030    -0.39390
N1649       N  0.24153027  0.59901951  0.47049401    -0.38830
N1650       N  0.39303151  0.62609750  0.45771834    -0.38830
C1651       C  0.43963823  0.81074799  0.34458462    -0.05500
C1652       C  0.45864004  0.79504164  0.35822703    -0.02620
C1653       C  0.45789071  0.79244680  0.38643729     0.02370
C1654       C  0.43895297  0.80706996  0.40164385    -0.05500
C1655       C  0.41932054  0.82184456  0.38729506    -0.02600
C1656       C  0.41860735  0.82145759  0.35917807     0.02370
C1657       C  0.47951481  0.78214087  0.34330250     0.37020
C1658       C  0.39962320  0.83802749  0.40077969     0.37010
C1659       C  0.39562490  0.83164603  0.34512005     0.35430
C1660       C  0.47671317  0.77452947  0.39926648     0.35430
N1661       N  0.37649323  0.83892967  0.33472524    -0.39390
N1662       N  0.49177846  0.76001797  0.40914232    -0.39390
N1663       N  0.38390938  0.85129605  0.41107337    -0.38830
N1664       N  0.49609902  0.77161257  0.33150225    -0.38830
C1665       C  0.43545732  0.80921427  0.10241412    -0.05500
C1666       C  0.45530415  0.79585590  0.11760045    -0.02620
C1667       C  0.45660369  0.79848998  0.14574610     0.02370
C1668       C  0.43934571  0.81590508  0.15933497    -0.05500
C1669       C  0.41887493  0.82841502  0.14466688    -0.02600
C1670       C  0.41719160  0.82564290  0.11650876     0.02370
C1671       C  0.47647746  0.78221890  0.10405848     0.37020
C1672       C  0.40028869  0.84553862  0.15866552     0.37010
C1673       C  0.39840624  0.84229268  0.10215109     0.35430
C1674       C  0.47726596  0.78516293  0.16070155     0.35430
N1675       N  0.38401622  0.85616585  0.09053295    -0.39390
N1676       N  0.49345958  0.77481336  0.17334825    -0.39390
N1677       N  0.38547841  0.85907539  0.16994097    -0.38830
N1678       N  0.49322872  0.77239836  0.09199673    -0.38830
C1679       C  0.43050260  0.68817909  0.34695646    -0.05500
C1680       C  0.43133046  0.71552429  0.35491358    -0.02620
C1681       C  0.42930314  0.72197576  0.38267875     0.02370
C1682       C  0.43341200  0.70151915  0.40217270    -0.05500
C1683       C  0.43041625  0.67452454  0.39358594    -0.02600
C1684       C  0.42434020  0.66916066  0.36682093     0.02370
C1685       C  0.42995301  0.73625576  0.33472327     0.37020
C1686       C  0.43465559  0.65197354  0.41150176     0.37010
C1687       C  0.40868670  0.64582899  0.35986195     0.35430
C1688       C  0.41491783  0.74574988  0.39057482     0.35430
N1689       N  0.39472023  0.62843819  0.35379552    -0.39390
N1690       N  0.40120340  0.76319613  0.39703357    -0.39390
N1691       N  0.43898986  0.63381270  0.42537876    -0.38830
N1692       N  0.42839954  0.75241770  0.31811990    -0.38830
C1693       C  0.43975456  0.71041689  0.10469816    -0.05500
C1694       C  0.46481235  0.71038051  0.11675056    -0.02620
C1695       C  0.46749856  0.70750658  0.14459362     0.02370
C1696       C  0.44581536  0.70032145  0.16031380    -0.05500
C1697       C  0.42047845  0.70170757  0.14873448    -0.02600
C1698       C  0.41739594  0.70822629  0.12127099     0.02370
C1699       C  0.48774726  0.71065856  0.09999267     0.37020
C1700       C  0.39773708  0.69634627  0.16503048     0.37010
C1701       C  0.39138884  0.71320471  0.11031399     0.35430
C1702       C  0.49244534  0.71241957  0.15744696     0.35430
N1703       N  0.37060310  0.71742384  0.10169916    -0.39390
N1704       N  0.01183720  0.71759946  0.16840446    -0.39390
N1705       N  0.37955057  0.69207379  0.17805318    -0.38830
N1706       N  0.00500196  0.71058660  0.08516999    -0.38830
C1707       C  0.18752759  0.90283370  0.43450018    -0.05500
C1708       C  0.20431423  0.88445182  0.44796315    -0.02620
C1709       C  0.19807014  0.85650502  0.44908461     0.02370
C1710       C  0.17470402  0.84672978  0.43697104    -0.05500
C1711       C  0.15819831  0.86530214  0.42323728    -0.02600
C1712       C  0.16412020  0.89309569  0.42289527     0.02370
C1713       C  0.22789938  0.89445586  0.46091281     0.37020
C1714       C  0.13458264  0.85594942  0.40960558     0.37010
C1715       C  0.14590652  0.91198570  0.41051622     0.35430
C1716       C  0.21524463  0.83802213  0.46334055     0.35430
N1717       N  0.13105400  0.92695870  0.40104878    -0.39390
N1718       N  0.22880553  0.82296114  0.47453609    -0.39390
N1719       N  0.11566030  0.84903411  0.39859214    -0.38830
N1720       N  0.24657728  0.90248457  0.47156484    -0.38830
C1721       C  0.18909516  0.59751835  0.43337991    -0.05500
C1722       C  0.20377659  0.62109350  0.42655456    -0.02620
C1723       C  0.19377532  0.64729383  0.43153577     0.02370
C1724       C  0.16775161  0.65052127  0.44026068    -0.05500
C1725       C  0.15199799  0.62667152  0.44333562    -0.02600
C1726       C  0.16344416  0.60070190  0.44258279     0.02370
C1727       C  0.22848943  0.61876923  0.41245423     0.37020
C1728       C  0.12352352  0.62799832  0.44503264     0.37010
C1729       C  0.14797490  0.57693289  0.44893007     0.35430
C1730       C  0.20952608  0.67081580  0.42518593     0.35430
N1731       N  0.13572837  0.55798945  0.45412879    -0.39390
N1732       N  0.22208883  0.68950096  0.41984676    -0.39390
N1733       N  0.10082533  0.62877315  0.44625384    -0.38830
N1734       N  0.24791949  0.61751142  0.40070574    -0.38830
C1735       C  0.19611841  0.84783050  0.04383602    -0.05500
C1736       C  0.18720625  0.87140924  0.03017664    -0.02620
C1737       C  0.19554811  0.89735230  0.03839474     0.02370
C1738       C  0.21177125  0.90001349  0.06102040    -0.05500
C1739       C  0.22365124  0.87637722  0.07211370    -0.02600
C1740       C  0.21591944  0.85038277  0.06334033     0.02370
C1741       C  0.16744991  0.86953729  0.00924175     0.37020
C1742       C  0.24289929  0.87845264  0.09356934     0.37010
C1743       C  0.22643471  0.82638925  0.07620258     0.35430
C1744       C  0.18565965  0.92129402  0.02493452     0.35430
N1745       N  0.23482764  0.80728717  0.08653169    -0.39390
N1746       N  0.17785092  0.94032934  0.51403502    -0.39390
N1747       N  0.25796312  0.87966565  0.11097474    -0.38830
N1748       N  0.15115827  0.86896702  0.49300759    -0.38830
C1749       C  0.20458584  0.59925206  0.06359591    -0.05500
C1750       C  0.21731945  0.62297969  0.07358463    -0.02620
C1751       C  0.20918044  0.64895953  0.06519906     0.02370
C1752       C  0.18796593  0.65158453  0.04730104    -0.05500
C1753       C  0.17691952  0.62779678  0.03556079    -0.02600
C1754       C  0.18559938  0.60183749  0.04332449     0.02370
C1755       C  0.23827093  0.62101568  0.09335461     0.37020
C1756       C  0.15491380  0.62966933  0.01711324     0.37010
C1757       C  0.17340314  0.57782395  0.03203478     0.35430
C1758       C  0.22107698  0.67295991  0.07682845     0.35430
N1759       N  0.16365678  0.55871291  0.02297830    -0.39390
N1760       N  0.23055448  0.69206514  0.08619098    -0.39390
N1761       N  0.13661927  0.63111168  0.00334290    -0.38830
N1762       N  0.25480488  0.61987820  0.10932981    -0.38830
C1763       C  0.05490674  0.80310004  0.41174856    -0.05500
C1764       C  0.07429725  0.79640399  0.39263290    -0.02620
C1765       C  0.06962845  0.80086534  0.36494924     0.02370
C1766       C  0.04641023  0.81394771  0.35630887    -0.05500
C1767       C  0.02753865  0.82141799  0.37592155    -0.02600
C1768       C  0.03138929  0.81510588  0.40309716     0.02370
C1769       C  0.09997227  0.78732017  0.40154442     0.37020
C1770       C  0.00558033  0.83889969  0.36927739     0.37010
C1771       C  0.01234281  0.82391331  0.42276722     0.35430
C1772       C  0.08975817  0.79440170  0.34566333     0.35430
N1773       N  0.49733301  0.83103400  0.43851076    -0.39390
N1774       N  0.10584352  0.78931072  0.33025704    -0.39390
N1775       N  0.48853034  0.85388880  0.36539390    -0.38830
N1776       N  0.12085821  0.78109044  0.40850408    -0.38830
C1777       C  0.07556079  0.80691553  0.11297588    -0.05500
C1778       C  0.06300115  0.78902806  0.13116714    -0.02620
C1779       C  0.06347174  0.79402862  0.15901195     0.02370
C1780       C  0.07335673  0.81846486  0.16895365    -0.05500
C1781       C  0.08861256  0.83465008  0.15189564    -0.02600
C1782       C  0.08977293  0.82910217  0.12418371     0.02370
C1783       C  0.04825611  0.76595831  0.12211105     0.37020
C1784       C  0.10268118  0.85759723  0.16310250     0.37010
C1785       C  0.10441215  0.84755284  0.10747431     0.35430
C1786       C  0.05352477  0.77427425  0.17767939     0.35430
N1787       N  0.11615685  0.86244144  0.09438451    -0.39390
N1788       N  0.04625149  0.75871476  0.19314796    -0.39390
N1789       N  0.11406757  0.87567977  0.17223225    -0.38830
N1790       N  0.03577419  0.74724021  0.11672878    -0.38830
C1791       C  0.04220991  0.69372399  0.35738288    -0.05500
C1792       C  0.06570347  0.70609703  0.36606248    -0.02620
C1793       C  0.07015043  0.71077235  0.39366652     0.02370
C1794       C  0.05004317  0.70575277  0.41242723    -0.05500
C1795       C  0.02591343  0.69527322  0.40355776    -0.02600
C1796       C  0.02241667  0.68819370  0.37651984     0.02370
C1797       C  0.08615009  0.71175803  0.34692863     0.37020
C1798       C  0.00610190  0.68813095  0.42299466     0.37010
C1799       C  0.00016605  0.67133021  0.36961126     0.35430
C1800       C  0.09621783  0.71813361  0.40293711     0.35430
N1801       N  0.98338071  0.65627517  0.36506124    -0.39390
N1802       N  0.11729698  0.72301611  0.41031647    -0.39390
N1803       N  0.99076288  0.68201568  0.43875836    -0.38830
N1804       N  0.10242648  0.71638057  0.33162872    -0.38830
C1805       C  0.05977701  0.68586227  0.16347554    -0.05500
C1806       C  0.04595758  0.67273449  0.14201383    -0.02620
C1807       C  0.05231280  0.67802735  0.11541751     0.02370
C1808       C  0.07039717  0.69832325  0.10943869    -0.05500
C1809       C  0.08428501  0.71161544  0.13026249    -0.02600
C1810       C  0.07918196  0.70514748  0.15730724     0.02370
C1811       C  0.02443184  0.65403802  0.14668247     0.37020
C1812       C  0.10380290  0.73181285  0.12375213     0.37010
C1813       C  0.09417486  0.71781161  0.17859998     0.35430
C1814       C  0.04027821  0.66228506  0.09397114     0.35430
N1815       N  0.10615020  0.72798219  0.19560876    -0.39390
N1816       N  0.03077626  0.64974579  0.07690361    -0.39390
N1817       N  0.11928984  0.74801220  0.11846455    -0.38830
N1818       N  0.00741452  0.63891671  0.14986710    -0.38830
N1819       N  0.16395127  0.71608710  0.52678061    -0.06280
N1820       N  0.18477997  0.70127850  0.53378819    -0.58400
N1821       N  0.13234646  0.70209530  0.97148392    -0.05960
N1822       N  0.13314411  0.67912636  0.95871250    -0.60530
N1823       N  0.15419641  0.71589814  0.96843911    -0.05560
N1824       N  0.17086115  0.70074513  0.95441197    -0.58380
N1825       N  0.14243860  0.70197765  0.53132059    -0.05240
N1826       N  0.14806181  0.67885095  0.54268895    -0.60880
C1827       C  0.17429700  0.67811020  0.54385259     0.95900
C1828       C  0.15698400  0.67778384  0.94812987     0.95670
N1829       N  0.05633221  0.72430913  0.98071659    -0.06470
N1830       N  0.04351616  0.72679719  0.95770567    -0.58980
N1831       N  0.08377512  0.70542212  0.54104031    -0.04590
N1832       N  0.08900515  0.69339896  0.56396462    -0.60230
N1833       N  0.06573833  0.72411128  0.54384450    -0.06500
N1834       N  0.05840510  0.72535847  0.56901208    -0.59250
N1835       N  0.07439720  0.70550794  0.97869383    -0.04230
N1836       N  0.07440760  0.69501771  0.95445368    -0.60320
Mn1837     Mn  0.10778709  0.70365741  0.50589098     1.18440
C1838       C  0.05507196  0.70836933  0.94158541     0.97980
C1839       C  0.07319919  0.70623161  0.58124526     0.98640
N1840       N  0.15669245  0.78491130  0.96844529    -0.06520
N1841       N  0.17418443  0.79727502  0.95304568    -0.62820
N1842       N  0.14640534  0.80083714  0.53157434    -0.05320
N1843       N  0.15424531  0.82394483  0.54170120    -0.63500
N1844       N  0.16666474  0.78484616  0.52654844    -0.06020
N1845       N  0.18876906  0.79818785  0.53214430    -0.63090
N1846       N  0.13652192  0.80126833  0.97199207    -0.04920
N1847       N  0.13903563  0.82343701  0.95815689    -0.63780
Mn1848     Mn  0.16163217  0.75036919  0.99729271     1.10660
C1849       C  0.16232712  0.82118283  0.94633602     0.99200
C1850       C  0.18046744  0.82248879  0.54177897     0.99280
N1851       N  0.06698532  0.78514777  0.54464023    -0.06030
N1852       N  0.05902112  0.78445072  0.56978735    -0.61400
N1853       N  0.07822993  0.80271230  0.97877052    -0.05350
N1854       N  0.07974089  0.81229972  0.95422454    -0.58130
N1855       N  0.05868692  0.78557851  0.98068426    -0.06660
N1856       N  0.04639677  0.78343207  0.95731683    -0.60970
N1857       N  0.08663316  0.80202932  0.54235645    -0.05650
N1858       N  0.09230623  0.81309290  0.56574673    -0.58160
Mn1859     Mn  0.06038166  0.75488603  0.51265187     1.20190
Mn1860     Mn  0.11142707  0.80196772  0.00657100     1.10090
Cl1861     Cl  0.11100518  0.75276501  0.50565786    -0.86130
C1862       C  0.07487603  0.80222282  0.58294774     0.96210
C1863       C  0.05982551  0.80017438  0.94102707     0.96000
N1864       N  0.44114853  0.72658580  0.53522481    -0.06280
N1865       N  0.45064291  0.73030574  0.55966388    -0.58400
N1866       N  0.42321875  0.70539577  0.97207770    -0.05960
N1867       N  0.41913946  0.69354952  0.94883822    -0.60530
N1868       N  0.44013581  0.72523558  0.96987287    -0.05560
N1869       N  0.44734585  0.72749251  0.94446592    -0.58380
N1870       N  0.42317204  0.70763132  0.53557263    -0.05240
N1871       N  0.42000720  0.69824579  0.56002492    -0.60880
C1872       C  0.43731951  0.71246461  0.57493532     0.95900
C1873       C  0.43424929  0.70721353  0.93165226     0.95670
N1874       N  0.34166003  0.71357287  0.97414995    -0.06470
N1875       N  0.32277879  0.69653017  0.96616450    -0.58980
N1876       N  0.36422405  0.70196706  0.53344945    -0.04590
N1877       N  0.36151651  0.67920776  0.54632374    -0.60230
N1878       N  0.34204620  0.71578927  0.53280390    -0.06500
N1879       N  0.32343751  0.70116004  0.54462010    -0.59250
N1880       N  0.36434724  0.70074161  0.97310007    -0.04230
N1881       N  0.36145951  0.67662230  0.96288193    -0.60320
Mn1882     Mn  0.39435817  0.70397531  0.50363452     1.18440
C1883       C  0.33573690  0.67336065  0.95894526     0.97980
C1884       C  0.33634995  0.67855333  0.55355577     0.98640
N1885       N  0.43924100  0.78643922  0.97021677    -0.06520
N1886       N  0.45087414  0.78612214  0.94667476    -0.62820
N1887       N  0.41783011  0.80460972  0.53293093    -0.05320
N1888       N  0.41439026  0.81597981  0.55656040    -0.63500
N1889       N  0.43787528  0.78793921  0.53363493    -0.06020
N1890       N  0.44828177  0.78780807  0.55792163    -0.63090
N1891       N  0.41945114  0.80329993  0.96985994    -0.04920
N1892       N  0.41739965  0.81485416  0.94626188    -0.63780
Mn1893     Mn  0.44128782  0.75637788  0.50219862     1.10660
C1894       C  0.43714897  0.80420582  0.93169635     0.99200
C1895       C  0.43369466  0.80560454  0.57224442     0.99280
N1896       N  0.33784717  0.78469853  0.53030336    -0.06030
N1897       N  0.31736128  0.79611780  0.54233165    -0.61400
N1898       N  0.35976807  0.79832678  0.96903081    -0.05350
N1899       N  0.35441618  0.82105934  0.95689517    -0.58130
N1900       N  0.33841695  0.78338981  0.97183429    -0.06660
N1901       N  0.31777719  0.79787548  0.96359209    -0.60970
N1902       N  0.35743383  0.80218307  0.52955918    -0.05650
N1903       N  0.35120757  0.82470710  0.54177193    -0.58160
Mn1904     Mn  0.33885467  0.74937146  0.50225833     1.20190
Mn1905     Mn  0.38889935  0.80229656  0.50039849     1.10090
Cl1906     Cl  0.39052982  0.75306717  0.50220154    -0.86130
C1907       C  0.32647279  0.82096892  0.54963625     0.96210
C1908       C  0.32837352  0.82132779  0.95424095     0.96000
N1909       N  0.22502378  0.53473421  0.58774591    -0.06280
N1910       N  0.21707950  0.54929596  0.56682778    -0.58400
N1911       N  0.28137798  0.55122920  0.61131903    -0.05960
N1912       N  0.29392922  0.57386413  0.60707629    -0.60530
N1913       N  0.28277397  0.53494452  0.59045276    -0.05560
N1914       N  0.29553686  0.54749323  0.57096844    -0.58380
N1915       N  0.22215461  0.54953519  0.60958319    -0.05240
N1916       N  0.21103553  0.57278453  0.60413718    -0.60880
C1917       C  0.20831144  0.57295334  0.57764409     0.95900
C1918       C  0.30274197  0.57154718  0.58217435     0.95670
N1919       N  0.28316567  0.53136984  0.68998623    -0.06470
N1920       N  0.30736379  0.53025574  0.69991868    -0.58980
N1921       N  0.21994031  0.54972664  0.67077290    -0.04590
N1922       N  0.19690494  0.56209134  0.66925661    -0.60230
N1923       N  0.22006095  0.53170783  0.68982353    -0.06500
N1924       N  0.19682639  0.53137893  0.70142151    -0.59250
N1925       N  0.28179704  0.55032201  0.67180024    -0.04230
N1926       N  0.30463221  0.56261878  0.66942103    -0.60320
Mn1927     Mn  0.25109785  0.55029697  0.64134171     1.18440
C1928       C  0.32055104  0.55035555  0.68734276     0.97980
C1929       C  0.18238145  0.55066437  0.68868017     0.98640
N1930       N  0.28349970  0.96545457  0.59112887    -0.06520
N1931       N  0.29552904  0.95089280  0.57232399    -0.62820
N1932       N  0.22337051  0.95047426  0.60874163    -0.05320
N1933       N  0.21444293  0.92640676  0.60245166    -0.63500
N1934       N  0.22613026  0.96551997  0.58715379    -0.06020
N1935       N  0.22044127  0.95055935  0.56575262    -0.63090
N1936       N  0.28261439  0.95084213  0.61306100    -0.04920
N1937       N  0.29501062  0.92798586  0.61027654    -0.63120
Mn1938     Mn  0.25449000  0.50021017  0.58799384     1.10660
C1939       C  0.30314778  0.92763835  0.58513207     0.99200
C1940       C  0.21316294  0.92620453  0.57581480     0.99280
N1941       N  0.21972255  0.97023567  0.68909132    -0.06030
N1942       N  0.19608513  0.97176328  0.69959405    -0.61400
N1943       N  0.28164709  0.95053258  0.67254574    -0.05350
N1944       N  0.30426913  0.93750210  0.67094651    -0.58130
N1945       N  0.28256851  0.96901061  0.69127713    -0.06660
N1946       N  0.30607940  0.96883112  0.70292340    -0.60970
N1947       N  0.21967639  0.95219069  0.66989513    -0.05650
N1948       N  0.19625690  0.94090285  0.66710059    -0.58160
Mn1949     Mn  0.25156594  0.00060948  0.69158623     1.20190
Mn1950     Mn  0.25150090  0.95113880  0.64150259     1.10090
Cl1951     Cl  0.25215897  0.00063286  0.63997768    -0.86130
C1952       C  0.18165232  0.95315981  0.68595317     0.96210
C1953       C  0.31930360  0.94872279  0.69024843     0.96000
N1954       N  0.21497722  0.53036739  0.81522970    -0.06280
N1955       N  0.19137980  0.53016454  0.80366981    -0.58400
N1956       N  0.27774058  0.55066419  0.83546322    -0.05960
N1957       N  0.30040870  0.56369086  0.83724837    -0.60530
N1958       N  0.27810373  0.53275782  0.81610599    -0.05560
N1959       N  0.30138073  0.53316660  0.80462647    -0.58380
N1960       N  0.21588352  0.54929154  0.83355968    -0.05240
N1961       N  0.19325207  0.56233810  0.83474495    -0.60880
C1962       C  0.17800319  0.55059397  0.81583700     0.95900
C1963       C  0.31516177  0.55286148  0.81761316     0.95670
N1964       N  0.27493060  0.53366674  0.91789127    -0.06470
N1965       N  0.28694213  0.54461714  0.93893508    -0.58980
N1966       N  0.21560812  0.54793384  0.89301998    -0.04590
N1967       N  0.20252855  0.57039625  0.89604911    -0.60230
N1968       N  0.21671358  0.53369960  0.91524410    -0.06500
N1969       N  0.20561861  0.54829581  0.93457713    -0.59250
N1970       N  0.27485784  0.55095428  0.89781624    -0.04230
N1971       N  0.28712343  0.57332968  0.90465249    -0.60320
Mn1972     Mn  0.24636188  0.54983414  0.86464450     1.18440
C1973       C  0.29470143  0.56920012  0.93004244     0.97980
C1974       C  0.19673316  0.57102784  0.92178024     0.98640
N1975       N  0.28071236  0.97094139  0.81526860    -0.06520
N1976       N  0.30409468  0.97262758  0.80392405    -0.62820
N1977       N  0.22017157  0.94808695  0.83428134    -0.05320
N1978       N  0.19849218  0.93365680  0.83677511    -0.63500
N1979       N  0.21736475  0.96696368  0.81613058    -0.06020
N1980       N  0.19315868  0.96575289  0.80619865    -0.63090
N1981       N  0.28131201  0.95243811  0.83394719    -0.04920
N1982       N  0.30462509  0.94083594  0.83547487    -0.63780
Mn1983     Mn  0.24752999  0.50023144  0.81400813     1.10660
C1984       C  0.31861866  0.95334551  0.81648385     0.99200
C1985       C  0.18179764  0.94437443  0.81874681     0.99280
N1986       N  0.21898020  0.96412868  0.91507641    -0.06030
N1987       N  0.20558411  0.95138620  0.93401419    -0.61400
N1988       N  0.28084643  0.95243364  0.89466329    -0.05350
N1989       N  0.29321684  0.92967684  0.89917484    -0.58130
N1990       N  0.27699443  0.96596074  0.91704985    -0.06660
N1991       N  0.28517345  0.95078466  0.93742507    -0.60970
N1992       N  0.22118753  0.94798026  0.89422624    -0.05650
N1993       N  0.20856124  0.92528703  0.89778989    -0.58160
Mn1994     Mn  0.24667296  0.49939572  0.91746933     1.20190
Mn1995     Mn  0.25105964  0.95029261  0.86395176     1.10090
Cl1996     Cl  0.24789424  0.49998189  0.86521257    -0.86130
C1997       C  0.19884577  0.92737786  0.92231846     0.96210
C1998       C  0.29533966  0.92822701  0.92566147     0.96000
N1999       N  0.03008008  0.67099738  0.72493272    -0.06280
N2000       N  0.04268558  0.68998843  0.71115667    -0.58400
N2001       N  0.47243431  0.65236355  0.70376078    -0.05960
N2002       N  0.46015638  0.65828170  0.68128702    -0.60530
N2003       N  0.47109846  0.67281716  0.72062617    -0.05560
N2004       N  0.45865125  0.69341196  0.70896646    -0.58380
N2005       N  0.03342820  0.64773088  0.71262999    -0.05240
N2006       N  0.05047249  0.64967753  0.69345715    -0.60880
C2007       C  0.05533436  0.67602735  0.69132164     0.95900
C2008       C  0.45118494  0.68365274  0.68458423     0.95670
N2009       N  0.46877830  0.56991711  0.72076941    -0.06470
N2010       N  0.44589883  0.55758704  0.71862316    -0.58980
N2011       N  0.03146788  0.58782859  0.70709705    -0.04590
N2012       N  0.05427434  0.58825060  0.69471126    -0.60230
N2013       N  0.03080061  0.56816780  0.72442871    -0.06500
N2014       N  0.05333431  0.55475056  0.72403550    -0.59250
N2015       N  0.47003762  0.58962092  0.70329984    -0.04230
N2016       N  0.44819948  0.59095039  0.68883999    -0.60320
Mn2017     Mn  0.00160122  0.61940071  0.70631956     1.18440
C2018       C  0.43330511  0.57057925  0.69836937     0.97980
C2019       C  0.06802464  0.56736116  0.70518653     0.98640
N2020       N  0.46605666  0.67074988  0.78768038    -0.06520
N2021       N  0.45208480  0.68989477  0.80011445    -0.62820
N2022       N  0.02476801  0.64892109  0.80689090    -0.05320
N2023       N  0.03547111  0.65336582  0.83038679    -0.63500
N2024       N  0.02447496  0.67116190  0.79241135    -0.06020
N2025       N  0.03351871  0.69157801  0.80727927    -0.63090
N2026       N  0.46453418  0.64810463  0.80143332    -0.04920
N2027       N  0.44850618  0.65081760  0.82142122    -0.63780
Mn2028     Mn  0.49789371  0.67280101  0.75631512     1.10660
C2029       C  0.44073342  0.67672218  0.82110728     0.99200
C2030       C  0.04069905  0.67988172  0.83087695     0.99280
N2031       N  0.02801227  0.56830890  0.78606426    -0.06030
N2032       N  0.05157278  0.55705921  0.78644343    -0.61400
N2033       N  0.46495086  0.58583026  0.80110339    -0.05350
N2034       N  0.44248993  0.58492252  0.81411446    -0.58130
N2035       N  0.46566680  0.56704367  0.78265156    -0.06660
N2036       N  0.44347110  0.55305871  0.78265945    -0.60970
N2037       N  0.02684176  0.58735989  0.80432766    -0.05650
N2038       N  0.04947256  0.58944411  0.81741191    -0.58160
Mn2039     Mn  0.99824072  0.56691723  0.75350566     1.20190
Mn2040     Mn  0.99522061  0.61730349  0.80360750     1.10090
Cl2041     Cl  0.99795466  0.61925487  0.75495532    -0.86130
C2042       C  0.06472750  0.57022018  0.80624736     0.96210
C2043       C  0.42915876  0.56414559  0.80272405     0.96000
N2044       N  0.03243025  0.93985814  0.72563485    -0.06280
N2045       N  0.05503758  0.95314426  0.72528617    -0.58400
N2046       N  0.47080242  0.92053961  0.70480122    -0.05960
N2047       N  0.44849158  0.91915516  0.69108833    -0.60530
N2048       N  0.46943727  0.93899979  0.72365632    -0.05560
N2049       N  0.44569750  0.95011253  0.72334239    -0.58380
N2050       N  0.03237135  0.92110406  0.70710751    -0.05240
N2051       N  0.05465926  0.92122598  0.69382925    -0.60880
C2052       C  0.06873829  0.94148104  0.70506587     0.95900
C2053       C  0.43306931  0.93812720  0.70238210     0.95670
N2054       N  0.47239198  0.83694901  0.71904623    -0.06470
N2055       N  0.45817849  0.81768411  0.70711636    -0.58980
N2056       N  0.03229883  0.85929366  0.70704173    -0.04590
N2057       N  0.04920109  0.85627653  0.68770621    -0.60230
N2058       N  0.03240186  0.83816437  0.72308071    -0.06500
N2059       N  0.04918371  0.81984836  0.71372081    -0.59250
N2060       N  0.47258064  0.85849662  0.70358256    -0.04230
N2061       N  0.45813814  0.85479742  0.68206891    -0.60320
Mn2062     Mn  0.50199141  0.89005128  0.70534233     1.18440
C2063       C  0.44890615  0.82956807  0.68424958     0.97980
C2064       C  0.05996376  0.83189020  0.69184910     0.98640
N2065       N  0.46834790  0.93890712  0.78538566    -0.06520
N2066       N  0.44547176  0.95179083  0.78531663    -0.62820
N2067       N  0.02938252  0.91824452  0.80613754    -0.05320
N2068       N  0.05170295  0.91509025  0.81953337    -0.63500
N2069       N  0.03142119  0.93723758  0.78802219    -0.06020
N2070       N  0.05561840  0.94712389  0.78877216    -0.63090
N2071       N  0.46795289  0.91920506  0.80283569    -0.04920
N2072       N  0.44516669  0.91828116  0.81509001    -0.63780
Mn2073     Mn  0.50050533  0.94033816  0.75574773     1.10660
C2074       C  0.43130691  0.93879748  0.80419259     0.99200
C2075       C  0.06794334  0.93353129  0.80893677     0.99280
N2076       N  0.02787564  0.83541064  0.79081939    -0.06030
N2077       N  0.03683343  0.81500081  0.80582028    -0.61400
N2078       N  0.46811602  0.85683098  0.80163554    -0.05350
N2079       N  0.45361347  0.85156574  0.82246154    -0.58130
N2080       N  0.46974546  0.83545454  0.78591088    -0.06660
N2081       N  0.45752218  0.81472928  0.79728404    -0.60970
N2082       N  0.02866270  0.85767426  0.80531094    -0.05650
N2083       N  0.03997806  0.85345769  0.82850070    -0.58160
Mn2084     Mn  0.50072176  0.83516510  0.75444399     1.20190
Mn2085     Mn  0.49831817  0.88829984  0.80396693     1.10090
Cl2086     Cl  0.50034658  0.88827456  0.75484611    -0.86130
C2087       C  0.04470818  0.82692205  0.82928007     0.96210
C2088       C  0.44701318  0.82545932  0.81989463     0.96000
C2089       C  0.34749416  0.94959600  0.81374027    -0.05500
C2090       C  0.35783543  0.92382520  0.80791623    -0.02620
C2091       C  0.38522278  0.92020360  0.80557492     0.02370
C2092       C  0.40253117  0.94246578  0.80833553    -0.05500
C2093       C  0.39237244  0.96752318  0.81691133    -0.02600
C2094       C  0.36500591  0.97067756  0.82067150     0.02370
C2095       C  0.34040876  0.90068380  0.80586885     0.37020
C2096       C  0.41040304  0.98882387  0.82475520     0.37010
C2097       C  0.35534186  0.99295714  0.83655815     0.35430
C2098       C  0.39551323  0.89333117  0.80100385     0.35430
N2099       N  0.34744955  0.50944698  0.85079879    -0.39390
N2100       N  0.40380581  0.87187020  0.79735445    -0.39390
N2101       N  0.42521842  0.50531757  0.83136215    -0.38830
N2102       N  0.32654458  0.88217922  0.80454652    -0.38830
C2103       C  0.15286393  0.93836549  0.81865334    -0.05500
C2104       C  0.14165631  0.92009406  0.80007888    -0.02620
C2105       C  0.11393817  0.91784270  0.79749811     0.02370
C2106       C  0.09713721  0.93338958  0.81393817    -0.05500
C2107       C  0.10845327  0.94862104  0.83498904    -0.02600
C2108       C  0.13614311  0.95153161  0.83704162     0.02370
C2109       C  0.15865254  0.90349690  0.78374819     0.37020
C2110       C  0.09163836  0.96120104  0.85462293     0.37010
C2111       C  0.14744912  0.96922191  0.85723343     0.35430
C2112       C  0.10264015  0.89995237  0.77748703     0.35430
N2113       N  0.15656248  0.98336567  0.87325853    -0.39390
N2114       N  0.09357821  0.88574817  0.76148459    -0.39390
N2115       N  0.07823453  0.97114555  0.87040311    -0.38830
N2116       N  0.17224846  0.89017536  0.77078355    -0.38830
C2117       C  0.34439273  0.55759774  0.81399225    -0.05500
C2118       C  0.35652221  0.54843765  0.79042773    -0.02620
C2119       C  0.38409957  0.54685708  0.78839229     0.02370
C2120       C  0.40047922  0.55856018  0.80808669    -0.05500
C2121       C  0.38874474  0.56679415  0.83228116    -0.02600
C2122       C  0.36094763  0.56732124  0.83492121     0.02370
C2123       C  0.34022363  0.54219326  0.76764681     0.37020
C2124       C  0.40531992  0.57123448  0.85559858     0.37010
C2125       C  0.34978820  0.57779001  0.85932432     0.35430
C2126       C  0.39535624  0.52896698  0.76882541     0.35430
N2127       N  0.34104547  0.58666689  0.87869104    -0.39390
N2128       N  0.40487033  0.51317491  0.75489628    -0.39390
N2129       N  0.41851429  0.57447807  0.87427987    -0.38830
N2130       N  0.32527808  0.53827123  0.75064446    -0.38830
C2131       C  0.09336813  0.56598575  0.81210996    -0.05500
C2132       C  0.10339061  0.53957156  0.81135736    -0.02620
C2133       C  0.13063122  0.53502877  0.80954101     0.02370
C2134       C  0.14886802  0.55627184  0.81329443    -0.05500
C2135       C  0.13871033  0.58276899  0.81713202    -0.02600
C2136       C  0.11118981  0.58772564  0.81560207     0.02370
C2137       C  0.08526253  0.51699934  0.81252948     0.37020
C2138       C  0.15652388  0.60530049  0.82125161     0.37010
C2139       C  0.10150981  0.61526235  0.81700973     0.35430
C2140       C  0.13919545  0.50893242  0.80089406     0.35430
N2141       N  0.09407172  0.63735909  0.81816755    -0.39390
N2142       N  0.14523166  0.98845108  0.79187491    -0.39390
N2143       N  0.17069132  0.62330853  0.82462799    -0.38830
N2144       N  0.06987630  0.49984354  0.81321626    -0.38830
C2145       C  0.34837369  0.94435850  0.69209787    -0.05500
C2146       C  0.36525570  0.95549778  0.67266910    -0.02620
C2147       C  0.39293008  0.95294259  0.67540411     0.02370
C2148       C  0.40393213  0.93947942  0.69769166    -0.05500
C2149       C  0.38698114  0.92558526  0.71500543    -0.02600
C2150       C  0.35939101  0.92870760  0.71285318     0.02370
C2151       C  0.35414080  0.97001114  0.65011476     0.37020
C2152       C  0.39821483  0.90518277  0.73221663     0.37010
C2153       C  0.34217687  0.91518171  0.73133597     0.35430
C2154       C  0.41001973  0.96345519  0.65493244     0.35430
N2155       N  0.32791886  0.90447175  0.74569117    -0.39390
N2156       N  0.42367563  0.97177151  0.63854762    -0.39390
N2157       N  0.40844665  0.88810262  0.74408842    -0.38830
N2158       N  0.34520868  0.98152116  0.63209895    -0.38830
C2159       C  0.15276398  0.94900302  0.68996504    -0.05500
C2160       C  0.14254317  0.95248775  0.71567177    -0.02620
C2161       C  0.11528726  0.95267916  0.71994635     0.02370
C2162       C  0.09740716  0.94606009  0.69920965    -0.05500
C2163       C  0.10768672  0.94126142  0.67335550    -0.02600
C2164       C  0.13513085  0.94320611  0.66865834     0.02370
C2165       C  0.16056245  0.95423577  0.73806645     0.37020
C2166       C  0.09007036  0.93510861  0.65123798     0.37010
C2167       C  0.14494067  0.93949653  0.64182356     0.35430
C2168       C  0.10613848  0.96048808  0.74581489     0.35430
N2169       N  0.15261366  0.93645881  0.62035017    -0.39390
N2170       N  0.09950526  0.96783409  0.76651155    -0.39390
N2171       N  0.07611172  0.93008169  0.63354386    -0.38830
N2172       N  0.17628310  0.95524815  0.75478919    -0.38830
C2173       C  0.40517157  0.56515099  0.69088889    -0.05500
C2174       C  0.38784232  0.58565264  0.68197956    -0.02620
C2175       C  0.36039360  0.58077120  0.68048433     0.02370
C2176       C  0.34974560  0.55562913  0.68908373    -0.05500
C2177       C  0.36760800  0.53520509  0.69741956    -0.02600
C2178       C  0.39489386  0.53932042  0.69568655     0.02370
C2179       C  0.39800912  0.61171767  0.67398462     0.37020
C2180       C  0.35885571  0.51120678  0.71097798     0.37010
C2181       C  0.41292275  0.51682538  0.69818189     0.35430
C2182       C  0.34330415  0.60242182  0.67126973     0.35430
N2183       N  0.42861767  0.50005215  0.70025449    -0.39390
N2184       N  0.32988415  0.61978402  0.66375567    -0.39390
N2185       N  0.35303156  0.49295474  0.72400596    -0.38830
N2186       N  0.40599218  0.63245543  0.66719908    -0.38830
C2187       C  0.15311636  0.55558144  0.69278695    -0.05500
C2188       C  0.13786841  0.57172177  0.67492164    -0.02620
C2189       C  0.11032025  0.57505020  0.67847445     0.02370
C2190       C  0.09709864  0.56228833  0.69992966    -0.05500
C2191       C  0.11234194  0.54587953  0.71729109    -0.02600
C2192       C  0.13985386  0.54319985  0.71427930     0.02370
C2193       C  0.15014799  0.58533644  0.65265594     0.37020
C2194       C  0.09965148  0.53150235  0.73848988     0.37010
C2195       C  0.15473625  0.52837325  0.73412992     0.35430
C2196       C  0.09575467  0.59140909  0.65936592     0.35430
N2197       N  0.16787705  0.51701430  0.74932736    -0.39390
N2198       N  0.08435376  0.60453225  0.64403840    -0.39390
N2199       N  0.08811611  0.52036745  0.75480673    -0.38830
N2200       N  0.15962615  0.59640794  0.63484475    -0.38830
C2201       C  0.31187041  0.84425130  0.56077300    -0.05500
C2202       C  0.32066324  0.85338382  0.58576358    -0.02620
C2203       C  0.32153796  0.88123839  0.59151367     0.02370
C2204       C  0.30999474  0.90047179  0.57375422    -0.05500
C2205       C  0.29876032  0.89091515  0.54958059    -0.02600
C2206       C  0.29982837  0.86292281  0.54314871     0.02370
C2207       C  0.32949710  0.83372657  0.60539354     0.37020
C2208       C  0.28601833  0.90970295  0.53150225     0.37010
C2209       C  0.28779775  0.85299249  0.51879850     0.35430
C2210       C  0.33466189  0.88995706  0.61595375     0.35430
N2211       N  0.27765418  0.84496649  0.99962266    -0.39390
N2212       N  0.34508437  0.89682260  0.63544669    -0.39390
N2213       N  0.27607226  0.92509343  0.51726982    -0.38830
N2214       N  0.33629540  0.81795920  0.62104004    -0.38830
C2215       C  0.31355637  0.59592470  0.56914679    -0.05500
C2216       C  0.29695913  0.61264636  0.55349991    -0.02620
C2217       C  0.30242869  0.64068368  0.55068733     0.02370
C2218       C  0.32533622  0.65197195  0.56247431    -0.05500
C2219       C  0.34191311  0.63482365  0.57802042    -0.02600
C2220       C  0.33621343  0.60715921  0.58094856     0.02370
C2221       C  0.27405639  0.60092126  0.54061109     0.37020
C2222       C  0.36504204  0.64540042  0.59161511     0.37010
C2223       C  0.35349210  0.59006534  0.59692994     0.35430
C2224       C  0.28407374  0.65785895  0.53640098     0.35430
N2225       N  0.36721434  0.57641927  0.60961790    -0.39390
N2226       N  0.26902943  0.67167109  0.52559011    -0.39390
N2227       N  0.38377600  0.65286937  0.60259371    -0.38830
N2228       N  0.25599416  0.59129950  0.53012062    -0.38830
C2229       C  0.29880957  0.90119959  0.93821805    -0.05500
C2230       C  0.28626622  0.87812821  0.92657994    -0.02620
C2231       C  0.29425425  0.85170893  0.93352707     0.02370
C2232       C  0.31490167  0.84801321  0.95185295    -0.05500
C2233       C  0.32547932  0.87105483  0.96551644    -0.02600
C2234       C  0.31729228  0.89744667  0.95874922     0.02370
C2235       C  0.26570461  0.88125388  0.90654529     0.37020
C2236       C  0.34564935  0.86809511  0.98598548     0.37010
C2237       C  0.32938024  0.92078153  0.97148912     0.35430
C2238       C  0.28255529  0.82843887  0.92034580     0.35430
N2239       N  0.33906744  0.93934974  0.98166033    -0.39390
N2240       N  0.27320826  0.80992171  0.90976571    -0.39390
N2241       N  0.36207412  0.86638554  0.00202152    -0.38830
N2242       N  0.24954542  0.88328466  0.89027093    -0.38830
C2243       C  0.32473503  0.64507272  0.95523923    -0.05500
C2244       C  0.34224395  0.62246392  0.95162800    -0.02620
C2245       C  0.33240983  0.59643542  0.94596092     0.02370
C2246       C  0.30541568  0.59167677  0.94632011    -0.05500
C2247       C  0.28846206  0.61233133  0.95507100    -0.02600
C2248       C  0.29756810  0.63929754  0.95767278     0.02370
C2249       C  0.37052266  0.62478449  0.95457654     0.37020
C2250       C  0.26216212  0.60514763  0.96314008     0.37010
C2251       C  0.27875587  0.66070675  0.96243036     0.35430
C2252       C  0.35012359  0.57424505  0.93975357     0.35430
N2253       N  0.26357596  0.67776701  0.96595137    -0.39390
N2254       N  0.36425808  0.55660752  0.93481025    -0.39390
N2255       N  0.24153029  0.59901952  0.97049402    -0.38830
N2256       N  0.39303154  0.62609752  0.95771810    -0.38830
C2257       C  0.43963823  0.81074798  0.84458461    -0.05500
C2258       C  0.45864004  0.79504162  0.85822703    -0.02620
C2259       C  0.45789071  0.79244679  0.88643728     0.02370
C2260       C  0.43895297  0.80706995  0.90164385    -0.05500
C2261       C  0.41932054  0.82184455  0.88729506    -0.02600
C2262       C  0.41860734  0.82145758  0.85917807     0.02370
C2263       C  0.47951480  0.78214086  0.84330249     0.37020
C2264       C  0.39962320  0.83802747  0.90077969     0.37010
C2265       C  0.39562489  0.83164602  0.84512005     0.35430
C2266       C  0.47671317  0.77452946  0.89926647     0.35430
N2267       N  0.37649323  0.83892966  0.83472524    -0.39390
N2268       N  0.49177846  0.76001796  0.90914231    -0.39390
N2269       N  0.38390938  0.85129604  0.91107337    -0.38830
N2270       N  0.49609901  0.77161255  0.83150224    -0.38830
C2271       C  0.43545732  0.80921427  0.60241412    -0.05500
C2272       C  0.45530415  0.79585590  0.61760044    -0.02620
C2273       C  0.45660369  0.79848997  0.64574609     0.02370
C2274       C  0.43934572  0.81590507  0.65933496    -0.05500
C2275       C  0.41887493  0.82841502  0.64466687    -0.02600
C2276       C  0.41719160  0.82564289  0.61650876     0.02370
C2277       C  0.47647747  0.78221889  0.60405847     0.37020
C2278       C  0.40028869  0.84553861  0.65866552     0.37010
C2279       C  0.39840623  0.84229268  0.60215109     0.35430
C2280       C  0.47726597  0.78516293  0.66070154     0.35430
N2281       N  0.38401622  0.85616584  0.59053295    -0.39390
N2282       N  0.49345959  0.77481336  0.67334825    -0.39390
N2283       N  0.38547841  0.85907538  0.66994097    -0.38830
N2284       N  0.49322872  0.77239836  0.59199672    -0.38830
C2285       C  0.43050262  0.68817909  0.84695648    -0.05500
C2286       C  0.43133046  0.71552429  0.85491360    -0.02620
C2287       C  0.42930314  0.72197576  0.88267876     0.02370
C2288       C  0.43341203  0.70151916  0.90217272    -0.05500
C2289       C  0.43041632  0.67452455  0.89358596    -0.02600
C2290       C  0.42434025  0.66916066  0.86682096     0.02370
C2291       C  0.42995298  0.73625576  0.83472329     0.37020
C2292       C  0.43465571  0.65197355  0.91150177     0.37010
C2293       C  0.40868676  0.64582898  0.85986200     0.35430
C2294       C  0.41491782  0.74574987  0.89057485     0.35430
N2295       N  0.39472028  0.62843817  0.85379559    -0.39390
N2296       N  0.40120339  0.76319611  0.89703360    -0.39390
N2297       N  0.43899004  0.63381272  0.92537878    -0.38830
N2298       N  0.42839948  0.75241769  0.81811992    -0.38830
C2299       C  0.43975454  0.71041688  0.60469815    -0.05500
C2300       C  0.46481233  0.71038051  0.61675055    -0.02620
C2301       C  0.46749854  0.70750658  0.64459361     0.02370
C2302       C  0.44581535  0.70032145  0.66031379    -0.05500
C2303       C  0.42047844  0.70170757  0.64873448    -0.02600
C2304       C  0.41739592  0.70822628  0.62127098     0.02370
C2305       C  0.48774725  0.71065856  0.59999267     0.37020
C2306       C  0.39773707  0.69634627  0.66503047     0.37010
C2307       C  0.39138882  0.71320470  0.61031398     0.35430
C2308       C  0.49244533  0.71241957  0.65744695     0.35430
N2309       N  0.37060309  0.71742384  0.60169915    -0.39390
N2310       N  0.01183719  0.71759945  0.66840445    -0.39390
N2311       N  0.37955056  0.69207379  0.67805317    -0.38830
N2312       N  0.00500195  0.71058659  0.58516998    -0.38830
C2313       C  0.18752760  0.90283369  0.93450018    -0.05500
C2314       C  0.20431424  0.88445181  0.94796314    -0.02620
C2315       C  0.19807015  0.85650501  0.94908461     0.02370
C2316       C  0.17470403  0.84672977  0.93697104    -0.05500
C2317       C  0.15819832  0.86530213  0.92323727    -0.02600
C2318       C  0.16412022  0.89309568  0.92289527     0.02370
C2319       C  0.22789940  0.89445584  0.96091281     0.37020
C2320       C  0.13458265  0.85594941  0.90960557     0.37010
C2321       C  0.14590653  0.91198569  0.91051622     0.35430
C2322       C  0.21524465  0.83802212  0.96334054     0.35430
N2323       N  0.13105401  0.92695869  0.90104878    -0.39390
N2324       N  0.22880555  0.82296113  0.97453608    -0.39390
N2325       N  0.11566032  0.84903411  0.89859214    -0.38830
N2326       N  0.24657729  0.90248456  0.97156484    -0.38830
C2327       C  0.18909517  0.59751834  0.93337992    -0.05500
C2328       C  0.20377660  0.62109349  0.92655457    -0.02620
C2329       C  0.19377532  0.64729382  0.93153578     0.02370
C2330       C  0.16775162  0.65052126  0.94026069    -0.05500
C2331       C  0.15199800  0.62667151  0.94333563    -0.02600
C2332       C  0.16344416  0.60070189  0.94258280     0.02370
C2333       C  0.22848944  0.61876921  0.91245424     0.37020
C2334       C  0.12352353  0.62799831  0.94503265     0.37010
C2335       C  0.14797490  0.57693288  0.94893008     0.35430
C2336       C  0.20952609  0.67081579  0.92518594     0.35430
N2337       N  0.13572838  0.55798944  0.95412880    -0.39390
N2338       N  0.22208884  0.68950095  0.91984677    -0.39390
N2339       N  0.10082533  0.62877315  0.94625385    -0.38830
N2340       N  0.24791950  0.61751140  0.90070575    -0.38830
C2341       C  0.19611839  0.84783052  0.54383602    -0.05500
C2342       C  0.18720623  0.87140925  0.53017664    -0.02620
C2343       C  0.19554809  0.89735231  0.53839474     0.02370
C2344       C  0.21177124  0.90001350  0.56102040    -0.05500
C2345       C  0.22365123  0.87637723  0.57211370    -0.02600
C2346       C  0.21591943  0.85038278  0.56334033     0.02370
C2347       C  0.16744989  0.86953730  0.50924175     0.37020
C2348       C  0.24289928  0.87845265  0.59356934     0.37010
C2349       C  0.22643469  0.82638927  0.57620258     0.35430
C2350       C  0.18565963  0.92129403  0.52493453     0.35430
N2351       N  0.23482763  0.80728718  0.58653169    -0.39390
N2352       N  0.17785094  0.94032933  0.01403501    -0.39390
N2353       N  0.25796311  0.87966566  0.61097474    -0.38830
N2354       N  0.15115829  0.86896701  0.99300758    -0.38830
C2355       C  0.20458584  0.59925207  0.56359591    -0.05500
C2356       C  0.21731944  0.62297969  0.57358464    -0.02620
C2357       C  0.20918044  0.64895953  0.56519907     0.02370
C2358       C  0.18796593  0.65158454  0.54730105    -0.05500
C2359       C  0.17691953  0.62779679  0.53556079    -0.02600
C2360       C  0.18559938  0.60183750  0.54332449     0.02370
C2361       C  0.23827092  0.62101569  0.59335463     0.37020
C2362       C  0.15491381  0.62966934  0.51711323     0.37010
C2363       C  0.17340315  0.57782396  0.53203478     0.35430
C2364       C  0.22107697  0.67295991  0.57682847     0.35430
N2365       N  0.16365679  0.55871292  0.52297829    -0.39390
N2366       N  0.23055447  0.69206515  0.58619100    -0.39390
N2367       N  0.13661928  0.63111169  0.50334289    -0.38830
N2368       N  0.25480487  0.61987821  0.60932983    -0.38830
C2369       C  0.05490675  0.80310004  0.91174856    -0.05500
C2370       C  0.07429726  0.79640400  0.89263290    -0.02620
C2371       C  0.06962846  0.80086534  0.86494923     0.02370
C2372       C  0.04641023  0.81394770  0.85630887    -0.05500
C2373       C  0.02753865  0.82141798  0.87592155    -0.02600
C2374       C  0.03138929  0.81510587  0.90309716     0.02370
C2375       C  0.09997228  0.78732018  0.90154442     0.37020
C2376       C  0.00558032  0.83889967  0.86927739     0.37010
C2377       C  0.01234281  0.82391329  0.92276722     0.35430
C2378       C  0.08975818  0.79440171  0.84566332     0.35430
N2379       N  0.49733301  0.83103398  0.93851076    -0.39390
N2380       N  0.10584353  0.78931074  0.83025703    -0.39390
N2381       N  0.48853033  0.85388878  0.86539390    -0.38830
N2382       N  0.12085823  0.78109045  0.90850408    -0.38830
C2383       C  0.07556078  0.80691553  0.61297589    -0.05500
C2384       C  0.06300114  0.78902806  0.63116714    -0.02620
C2385       C  0.06347173  0.79402861  0.65901195     0.02370
C2386       C  0.07335673  0.81846485  0.66895366    -0.05500
C2387       C  0.08861255  0.83465008  0.65189564    -0.02600
C2388       C  0.08977292  0.82910217  0.62418371     0.02370
C2389       C  0.04825610  0.76595830  0.62211105     0.37020
C2390       C  0.10268118  0.85759722  0.66310250     0.37010
C2391       C  0.10441213  0.84755283  0.60747431     0.35430
C2392       C  0.05352476  0.77427424  0.67767939     0.35430
N2393       N  0.11615683  0.86244144  0.59438450    -0.39390
N2394       N  0.04625148  0.75871475  0.69314796    -0.39390
N2395       N  0.11406756  0.87567977  0.67223225    -0.38830
N2396       N  0.03577418  0.74724020  0.61672878    -0.38830
C2397       C  0.04220991  0.69372399  0.85738288    -0.05500
C2398       C  0.06570347  0.70609703  0.86606247    -0.02620
C2399       C  0.07015043  0.71077236  0.89366651     0.02370
C2400       C  0.05004317  0.70575277  0.91242722    -0.05500
C2401       C  0.02591344  0.69527321  0.90355776    -0.02600
C2402       C  0.02241668  0.68819368  0.87651984     0.02370
C2403       C  0.08615008  0.71175804  0.84692862     0.37020
C2404       C  0.00610191  0.68813094  0.92299466     0.37010
C2405       C  0.00016606  0.67133019  0.86961126     0.35430
C2406       C  0.09621782  0.71813363  0.90293710     0.35430
N2407       N  0.98338074  0.65627513  0.86506124    -0.39390
N2408       N  0.11729698  0.72301613  0.91031646    -0.39390
N2409       N  0.99076289  0.68201567  0.93875837    -0.38830
N2410       N  0.10242646  0.71638059  0.83162870    -0.38830
C2411       C  0.05977701  0.68586227  0.66347554    -0.05500
C2412       C  0.04595757  0.67273449  0.64201383    -0.02620
C2413       C  0.05231280  0.67802735  0.61541751     0.02370
C2414       C  0.07039716  0.69832325  0.60943870    -0.05500
C2415       C  0.08428500  0.71161543  0.63026250    -0.02600
C2416       C  0.07918196  0.70514748  0.65730724     0.02370
C2417       C  0.02443183  0.65403802  0.64668247     0.37020
C2418       C  0.10380290  0.73181285  0.62375214     0.37010
C2419       C  0.09417485  0.71781161  0.67859999     0.35430
C2420       C  0.04027821  0.66228505  0.59397115     0.35430
N2421       N  0.10615019  0.72798219  0.69560876    -0.39390
N2422       N  0.03077626  0.64974579  0.57690362    -0.39390
N2423       N  0.11928983  0.74801220  0.61846456    -0.38830
N2424       N  0.00741451  0.63891671  0.64986710    -0.38830
N2425       N  0.66395127  0.21608709  0.02678060    -0.06280
N2426       N  0.68477997  0.20127849  0.03378818    -0.58400
N2427       N  0.63234646  0.20209530  0.47148392    -0.05960
N2428       N  0.63314411  0.17912636  0.45871250    -0.60530
N2429       N  0.65419641  0.21589815  0.46843911    -0.05560
N2430       N  0.67086114  0.20074513  0.45441197    -0.58380
N2431       N  0.64243860  0.20197764  0.03132058    -0.05240
N2432       N  0.64806181  0.17885094  0.04268895    -0.60880
C2433       C  0.67429699  0.17811019  0.04385259     0.95900
C2434       C  0.65698400  0.17778385  0.44812987     0.95670
N2435       N  0.55633221  0.22430913  0.48071659    -0.06470
N2436       N  0.54351616  0.22679719  0.45770567    -0.58980
N2437       N  0.58377512  0.20542212  0.04104031    -0.04590
N2438       N  0.58900514  0.19339896  0.06396462    -0.60230
N2439       N  0.56573834  0.22411128  0.04384450    -0.06500
N2440       N  0.55840510  0.22535847  0.06901208    -0.59250
N2441       N  0.57439720  0.20550794  0.47869384    -0.04230
N2442       N  0.57440760  0.19501771  0.45445368    -0.60320
Mn2443     Mn  0.60778709  0.20365741  0.00589098     1.18440
C2444       C  0.55507196  0.20836933  0.44158541     0.97980
C2445       C  0.57319919  0.20623161  0.08124526     0.98640
N2446       N  0.65669245  0.28491131  0.46844530    -0.06520
N2447       N  0.67418442  0.29727503  0.45304568    -0.62820
N2448       N  0.64640535  0.30083714  0.03157434    -0.05320
N2449       N  0.65424532  0.32394482  0.04170120    -0.63500
N2450       N  0.66666475  0.28484615  0.02654844    -0.06020
N2451       N  0.68876906  0.29818784  0.03214430    -0.63090
N2452       N  0.63652192  0.30126834  0.47199207    -0.04920
N2453       N  0.63903563  0.32343702  0.45815689    -0.63780
Mn2454     Mn  0.66163217  0.25036920  0.49729271     1.10660
C2455       C  0.66232711  0.32118283  0.44633602     0.99200
C2456       C  0.68046745  0.32248878  0.04177897     0.99280
N2457       N  0.56698533  0.28514777  0.04464023    -0.06030
N2458       N  0.55902112  0.28445072  0.06978735    -0.61400
N2459       N  0.57822992  0.30271231  0.47877053    -0.05350
N2460       N  0.57974089  0.31229972  0.45422455    -0.58130
N2461       N  0.55868692  0.28557852  0.48068427    -0.06660
N2462       N  0.54639677  0.28343208  0.45731683    -0.60970
N2463       N  0.58663317  0.30202932  0.04235645    -0.05650
N2464       N  0.59230624  0.31309290  0.06574673    -0.58160
Mn2465     Mn  0.56038166  0.25488604  0.01265187     1.20190
Mn2466     Mn  0.61142707  0.30196773  0.50657100     1.10090
Cl2467     Cl  0.61100518  0.25276501  0.00565786    -0.86130
C2468       C  0.57487604  0.30222282  0.08294774     0.96210
C2469       C  0.55982551  0.30017438  0.44102707     0.96000
N2470       N  0.94114854  0.22658580  0.03522481    -0.06280
N2471       N  0.95064292  0.23030574  0.05966388    -0.58400
N2472       N  0.92321873  0.20539577  0.47207769    -0.05960
N2473       N  0.91913945  0.19354953  0.44883821    -0.60530
N2474       N  0.94013579  0.22523559  0.46987286    -0.05560
N2475       N  0.94734584  0.22749251  0.44446591    -0.58380
N2476       N  0.92317206  0.20763132  0.03557263    -0.05240
N2477       N  0.92000722  0.19824579  0.06002492    -0.60880
C2478       C  0.93731952  0.21246461  0.07493532     0.95900
C2479       C  0.93424927  0.20721353  0.43165225     0.95670
N2480       N  0.84166001  0.21357288  0.47414996    -0.06470
N2481       N  0.82277877  0.19653017  0.46616451    -0.58980
N2482       N  0.86422407  0.20196705  0.03344945    -0.04590
N2483       N  0.86151653  0.17920775  0.04632373    -0.60230
N2484       N  0.84204622  0.21578926  0.03280389    -0.06500
N2485       N  0.82343752  0.20116003  0.04462009    -0.59250
N2486       N  0.86434723  0.20074162  0.47310006    -0.04230
N2487       N  0.86145949  0.17662231  0.46288193    -0.60320
Mn2488     Mn  0.89435819  0.20397531  0.00363452     1.18440
C2489       C  0.83573688  0.17336066  0.45894527     0.97980
C2490       C  0.83634996  0.17855333  0.05355577     0.98640
N2491       N  0.93924099  0.28643923  0.47021677    -0.06520
N2492       N  0.95087413  0.28612214  0.44667476    -0.62820
N2493       N  0.91783012  0.30460972  0.03293092    -0.05320
N2494       N  0.91439027  0.31597981  0.05656039    -0.63500
N2495       N  0.93787529  0.28793921  0.03363493    -0.06020
N2496       N  0.94828178  0.28780807  0.05792163    -0.63090
N2497       N  0.91945113  0.30329994  0.46985994    -0.04920
N2498       N  0.91739963  0.31485416  0.44626187    -0.63780
Mn2499     Mn  0.94128783  0.25637787  0.00219862     1.10660
C2500       C  0.93714895  0.30420582  0.43169634     0.99200
C2501       C  0.93369467  0.30560454  0.07224441     0.99280
N2502       N  0.83784718  0.28469852  0.03030335    -0.06030
N2503       N  0.81736129  0.29611779  0.04233163    -0.61400
N2504       N  0.85976805  0.29832679  0.46903082    -0.05350
N2505       N  0.85441616  0.32105935  0.45689517    -0.58130
N2506       N  0.83841693  0.28338982  0.47183430    -0.06660
N2507       N  0.81777717  0.29787549  0.46359210    -0.60970
N2508       N  0.85743384  0.30218306  0.02955917    -0.05650
N2509       N  0.85120758  0.32470709  0.04177192    -0.58160
Mn2510     Mn  0.83885468  0.24937146  0.00225832     1.20190
Mn2511     Mn  0.88889936  0.30229655  0.00039848     1.10090
Cl2512     Cl  0.89052984  0.25306716  0.00220153    -0.86130
C2513       C  0.82647280  0.32096891  0.04963623     0.96210
C2514       C  0.82837350  0.32132780  0.45424097     0.96000
N2515       N  0.72502379  0.03473420  0.08774591    -0.06280
N2516       N  0.71707950  0.04929595  0.06682778    -0.58400
N2517       N  0.78137799  0.05122920  0.11131903    -0.05960
N2518       N  0.79392923  0.07386412  0.10707628    -0.60530
N2519       N  0.78277398  0.03494451  0.09045276    -0.05560
N2520       N  0.79553686  0.04749322  0.07096844    -0.58380
N2521       N  0.72215462  0.04953518  0.10958318    -0.05240
N2522       N  0.71103554  0.07278453  0.10413718    -0.60880
C2523       C  0.70831145  0.07295333  0.07764409     0.95900
C2524       C  0.80274198  0.07154717  0.08217434     0.95670
N2525       N  0.78316568  0.03136983  0.18998623    -0.06470
N2526       N  0.80736380  0.03025573  0.19991868    -0.58980
N2527       N  0.71994032  0.04972663  0.17077290    -0.04590
N2528       N  0.69690495  0.06209134  0.16925660    -0.60230
N2529       N  0.72006096  0.03170783  0.18982352    -0.06500
N2530       N  0.69682640  0.03137893  0.20142151    -0.59250
N2531       N  0.78179705  0.05032201  0.17180023    -0.04230
N2532       N  0.80463222  0.06261878  0.16942103    -0.60320
Mn2533     Mn  0.75109786  0.05029696  0.14134171     1.18440
C2534       C  0.82055105  0.05035555  0.18734276     0.97980
C2535       C  0.68238145  0.05066436  0.18868016     0.98640
N2536       N  0.78349970  0.46545456  0.09112887    -0.06520
N2537       N  0.79552904  0.45089279  0.07232399    -0.62820
N2538       N  0.72337051  0.45047425  0.10874162    -0.05320
N2539       N  0.71444293  0.42640676  0.10245166    -0.63500
N2540       N  0.72613027  0.46551996  0.08715379    -0.06020
N2541       N  0.72044128  0.45055934  0.06575262    -0.63090
N2542       N  0.78261440  0.45084212  0.11306099    -0.04920
N2543       N  0.79501062  0.42798585  0.11027653    -0.63120
Mn2544     Mn  0.75449001  0.00021017  0.08799383     1.10660
C2545       C  0.80314779  0.42763834  0.08513206     0.99200
C2546       C  0.71316295  0.42620452  0.07581479     0.99280
N2547       N  0.71972256  0.47023566  0.18909131    -0.06030
N2548       N  0.69608513  0.47176327  0.19959405    -0.61400
N2549       N  0.78164709  0.45053257  0.17254573    -0.05350
N2550       N  0.80426914  0.43750209  0.17094651    -0.58130
N2551       N  0.78256851  0.46901061  0.19127713    -0.06660
N2552       N  0.80607940  0.46883111  0.20292340    -0.60970
N2553       N  0.71967640  0.45219069  0.16989512    -0.05650
N2554       N  0.69625690  0.44090284  0.16710058    -0.58160
Mn2555     Mn  0.75156594  0.50060948  0.19158623     1.20190
Mn2556     Mn  0.75150090  0.45113879  0.14150258     1.10090
Cl2557     Cl  0.75215897  0.50063285  0.13997767    -0.86130
C2558       C  0.68165232  0.45315980  0.18595317     0.96210
C2559       C  0.81930360  0.44872279  0.19024842     0.96000
N2560       N  0.71497722  0.03036739  0.31522970    -0.06280
N2561       N  0.69137980  0.03016454  0.30366981    -0.58400
N2562       N  0.77774059  0.05066419  0.33546321    -0.05960
N2563       N  0.80040871  0.06369085  0.33724836    -0.60530
N2564       N  0.77810374  0.03275782  0.31610599    -0.05560
N2565       N  0.80138073  0.03316659  0.30462647    -0.58380
N2566       N  0.71588353  0.04929154  0.33355968    -0.05240
N2567       N  0.69325208  0.06233810  0.33474495    -0.60880
C2568       C  0.67800320  0.05059397  0.31583699     0.95900
C2569       C  0.81516177  0.05286147  0.31761316     0.95670
N2570       N  0.77493060  0.03366675  0.41789127    -0.06470
N2571       N  0.78694212  0.04461714  0.43893509    -0.58980
N2572       N  0.71560812  0.04793385  0.39301997    -0.04590
N2573       N  0.70252856  0.07039626  0.39604911    -0.60230
N2574       N  0.71671358  0.03369961  0.41524410    -0.06500
N2575       N  0.70561861  0.04829582  0.43457712    -0.59250
N2576       N  0.77485784  0.05095429  0.39781624    -0.04230
N2577       N  0.78712343  0.07332969  0.40465249    -0.60320
Mn2578     Mn  0.74636189  0.04983415  0.36464449     1.18440
C2579       C  0.79470142  0.06920013  0.43004245     0.97980
C2580       C  0.69673316  0.07102785  0.42178023     0.98640
N2581       N  0.78071237  0.47094139  0.31526861    -0.06520
N2582       N  0.80409468  0.47262757  0.30392406    -0.62820
N2583       N  0.72017158  0.44808694  0.33428134    -0.05320
N2584       N  0.69849219  0.43365680  0.33677511    -0.63500
N2585       N  0.71736476  0.46696368  0.31613058    -0.06020
N2586       N  0.69315869  0.46575289  0.30619864    -0.63090
N2587       N  0.78131201  0.45243811  0.33394719    -0.04920
N2588       N  0.80462509  0.44083594  0.33547489    -0.63780
Mn2589     Mn  0.74752999  0.00023144  0.31400813     1.10660
C2590       C  0.81861866  0.45334551  0.31648386     0.99200
C2591       C  0.68179765  0.44437442  0.31874681     0.99280
N2592       N  0.71898019  0.46412869  0.41507640    -0.06030
N2593       N  0.70558409  0.45138621  0.43401418    -0.61400
N2594       N  0.78084642  0.45243364  0.39466330    -0.05350
N2595       N  0.79321683  0.42967685  0.39917485    -0.58130
N2596       N  0.77699442  0.46596075  0.41704986    -0.06660
N2597       N  0.78517343  0.45078467  0.43742507    -0.60970
N2598       N  0.72118753  0.44798026  0.39422624    -0.05650
N2599       N  0.70856123  0.42528704  0.39778989    -0.58160
Mn2600     Mn  0.74667296  0.99939573  0.41746933     1.20190
Mn2601     Mn  0.75105964  0.45029262  0.36395176     1.10090
Cl2602     Cl  0.74789424  0.99998189  0.36521258    -0.86130
C2603       C  0.69884576  0.42737787  0.42231845     0.96210
C2604       C  0.79533964  0.42822702  0.42566149     0.96000
N2605       N  0.53008008  0.17099738  0.22493272    -0.06280
N2606       N  0.54268559  0.18998843  0.21115668    -0.58400
N2607       N  0.97243432  0.15236354  0.20376078    -0.05960
N2608       N  0.96015639  0.15828169  0.18128702    -0.60530
N2609       N  0.97109847  0.17281715  0.22062617    -0.05560
N2610       N  0.95865126  0.19341195  0.20896646    -0.58380
N2611       N  0.53342820  0.14773088  0.21262999    -0.05240
N2612       N  0.55047250  0.14967753  0.19345715    -0.60880
C2613       C  0.55533437  0.17602735  0.19132164     0.95900
C2614       C  0.95118495  0.18365273  0.18458423     0.95670
N2615       N  0.96877830  0.06991710  0.22076941    -0.06470
N2616       N  0.94589884  0.05758703  0.21862315    -0.58980
N2617       N  0.53146788  0.08782859  0.20709705    -0.04590
N2618       N  0.55427435  0.08825060  0.19471125    -0.60230
N2619       N  0.53080062  0.06816780  0.22442870    -0.06500
N2620       N  0.55333432  0.05475056  0.22403549    -0.59250
N2621       N  0.97003763  0.08962091  0.20329983    -0.04230
N2622       N  0.94819949  0.09095038  0.18883999    -0.60320
Mn2623     Mn  0.50160123  0.11940071  0.20631956     1.18440
C2624       C  0.93330512  0.07057924  0.19836936     0.97980
C2625       C  0.56802465  0.06736115  0.20518652     0.98640
N2626       N  0.96605667  0.17074987  0.28768037    -0.06520
N2627       N  0.95208480  0.18989476  0.30011445    -0.62820
N2628       N  0.52476801  0.14892109  0.30689090    -0.05320
N2629       N  0.53547112  0.15336582  0.33038679    -0.63500
N2630       N  0.52447497  0.17116189  0.29241135    -0.06020
N2631       N  0.53351871  0.19157801  0.30727928    -0.63090
N2632       N  0.96453418  0.14810462  0.30143332    -0.04920
N2633       N  0.94850618  0.15081760  0.32142122    -0.63780
Mn2634     Mn  0.99789372  0.17280101  0.25631512     1.10660
C2635       C  0.94073342  0.17672217  0.32110728     0.99200
C2636       C  0.54069905  0.17988171  0.33087696     0.99280
N2637       N  0.52801227  0.06830890  0.28606425    -0.06030
N2638       N  0.55157279  0.05705921  0.28644343    -0.61400
N2639       N  0.96495086  0.08583025  0.30110338    -0.05350
N2640       N  0.94248993  0.08492251  0.31411446    -0.58130
N2641       N  0.96566681  0.06704366  0.28265156    -0.06660
N2642       N  0.94347110  0.05305870  0.28265945    -0.60970
N2643       N  0.52684176  0.08735989  0.30432765    -0.05650
N2644       N  0.54947256  0.08944411  0.31741191    -0.58160
Mn2645     Mn  0.49824073  0.06691723  0.25350565     1.20190
Mn2646     Mn  0.49522061  0.11730348  0.30360750     1.10090
Cl2647     Cl  0.49795467  0.11925486  0.25495531    -0.86130
C2648       C  0.56472751  0.07022018  0.30624736     0.96210
C2649       C  0.92915877  0.06414559  0.30272404     0.96000
N2650       N  0.53243025  0.43985814  0.22563486    -0.06280
N2651       N  0.55503759  0.45314425  0.22528617    -0.58400
N2652       N  0.97080242  0.42053962  0.20480122    -0.05960
N2653       N  0.94849158  0.41915517  0.19108833    -0.60530
N2654       N  0.96943727  0.43899979  0.22365633    -0.05560
N2655       N  0.94569751  0.45011254  0.22334240    -0.58380
N2656       N  0.53237135  0.42110406  0.20710751    -0.05240
N2657       N  0.55465926  0.42122598  0.19382925    -0.60880
C2658       C  0.56873829  0.44148103  0.20506588     0.95900
C2659       C  0.93306931  0.43812721  0.20238211     0.95670
N2660       N  0.97239197  0.33694901  0.21904623    -0.06470
N2661       N  0.95817849  0.31768412  0.20711635    -0.58980
N2662       N  0.53229884  0.35929367  0.20704173    -0.04590
N2663       N  0.54920110  0.35627654  0.18770621    -0.60230
N2664       N  0.53240186  0.33816437  0.22308071    -0.06500
N2665       N  0.54918371  0.31984837  0.21372081    -0.59250
N2666       N  0.97258064  0.35849662  0.20358256    -0.04230
N2667       N  0.95813814  0.35479743  0.18206891    -0.60320
Mn2668     Mn  0.00199141  0.39005129  0.20534233     1.18440
C2669       C  0.94890615  0.32956807  0.18424958     0.97980
C2670       C  0.55996376  0.33189021  0.19184910     0.98640
N2671       N  0.96834790  0.43890712  0.28538567    -0.06520
N2672       N  0.94547177  0.45179083  0.28531664    -0.62820
N2673       N  0.52938253  0.41824452  0.30613754    -0.05320
N2674       N  0.55170295  0.41509025  0.31953338    -0.63500
N2675       N  0.53142119  0.43723758  0.28802220    -0.06020
N2676       N  0.55561840  0.44712389  0.28877216    -0.63090
N2677       N  0.96795289  0.41920506  0.30283569    -0.04920
N2678       N  0.94516669  0.41828115  0.31509002    -0.63780
Mn2679     Mn  0.00050533  0.44033816  0.25574773     1.10660
C2680       C  0.93130692  0.43879748  0.30419261     0.99200
C2681       C  0.56794334  0.43353129  0.30893678     0.99280
N2682       N  0.52787565  0.33541064  0.29081940    -0.06030
N2683       N  0.53683344  0.31500081  0.30582028    -0.61400
N2684       N  0.96811603  0.35683098  0.30163554    -0.05350
N2685       N  0.95361347  0.35156574  0.32246154    -0.58130
N2686       N  0.96974545  0.33545454  0.28591088    -0.06660
N2687       N  0.95752218  0.31472928  0.29728403    -0.60970
N2688       N  0.52866271  0.35767426  0.30531094    -0.05650
N2689       N  0.53997807  0.35345769  0.32850070    -0.58160
Mn2690     Mn  0.00072176  0.33516510  0.25444398     1.20190
Mn2691     Mn  0.99831817  0.38829984  0.30396693     1.10090
Cl2692     Cl  0.00034658  0.38827457  0.25484611    -0.86130
C2693       C  0.54470819  0.32692206  0.32928008     0.96210
C2694       C  0.94701318  0.32545932  0.31989463     0.96000
C2695       C  0.84749417  0.44959600  0.31374029    -0.05500
C2696       C  0.85783543  0.42382519  0.30791625    -0.02620
C2697       C  0.88522279  0.42020359  0.30557495     0.02370
C2698       C  0.90253118  0.44246578  0.30833554    -0.05500
C2699       C  0.89237245  0.46752318  0.31691134    -0.02600
C2700       C  0.86500591  0.47067756  0.32067151     0.02370
C2701       C  0.84040877  0.40068379  0.30586888     0.37020
C2702       C  0.91040304  0.48882387  0.32475521     0.37010
C2703       C  0.85534186  0.49295714  0.33655816     0.35430
C2704       C  0.89551324  0.39333116  0.30100389     0.35430
N2705       N  0.84744956  0.00944698  0.35079879    -0.39390
N2706       N  0.90380581  0.37187020  0.29735449    -0.39390
N2707       N  0.92521843  0.00531756  0.33136215    -0.38830
N2708       N  0.82654459  0.38217922  0.30454655    -0.38830
C2709       C  0.65286393  0.43836549  0.31865334    -0.05500
C2710       C  0.64165632  0.42009405  0.30007889    -0.02620
C2711       C  0.61393817  0.41784269  0.29749813     0.02370
C2712       C  0.59713721  0.43338958  0.31393818    -0.05500
C2713       C  0.60845328  0.44862104  0.33498904    -0.02600
C2714       C  0.63614312  0.45153162  0.33704162     0.02370
C2715       C  0.65865254  0.40349687  0.28374822     0.37020
C2716       C  0.59163836  0.46120106  0.35462293     0.37010
C2717       C  0.64744912  0.46922192  0.35723342     0.35430
C2718       C  0.60264015  0.39995234  0.27748706     0.35430
N2719       N  0.65656248  0.48336569  0.37325852    -0.39390
N2720       N  0.59357821  0.38574814  0.26148462    -0.39390
N2721       N  0.57823453  0.47114558  0.37040310    -0.38830
N2722       N  0.67224846  0.39017533  0.27078358    -0.38830
C2723       C  0.84439274  0.05759774  0.31399224    -0.05500
C2724       C  0.85652222  0.04843764  0.29042773    -0.02620
C2725       C  0.88409957  0.04685707  0.28839228     0.02370
C2726       C  0.90047923  0.05856017  0.30808669    -0.05500
C2727       C  0.88874475  0.06679414  0.33228115    -0.02600
C2728       C  0.86094763  0.06732123  0.33492120     0.02370
C2729       C  0.84022363  0.04219324  0.26764682     0.37020
C2730       C  0.90531993  0.07123448  0.35559857     0.37010
C2731       C  0.84978821  0.07779001  0.35932432     0.35430
C2732       C  0.89535624  0.02896697  0.26882540     0.35430
N2733       N  0.84104548  0.08666688  0.37869104    -0.39390
N2734       N  0.90487034  0.01317491  0.25489628    -0.39390
N2735       N  0.91851429  0.07447807  0.37427986    -0.38830
N2736       N  0.82527809  0.03827120  0.25064446    -0.38830
C2737       C  0.59336814  0.06598575  0.31210996    -0.05500
C2738       C  0.60339062  0.03957156  0.31135736    -0.02620
C2739       C  0.63063123  0.03502877  0.30954101     0.02370
C2740       C  0.64886802  0.05627184  0.31329443    -0.05500
C2741       C  0.63871033  0.08276899  0.31713202    -0.02600
C2742       C  0.61118982  0.08772564  0.31560206     0.02370
C2743       C  0.58526254  0.01699934  0.31252949     0.37020
C2744       C  0.65652389  0.10530049  0.32125160     0.37010
C2745       C  0.60150982  0.11526235  0.31700972     0.35430
C2746       C  0.63919545  0.00893243  0.30089406     0.35430
N2747       N  0.59407172  0.13735909  0.31816754    -0.39390
N2748       N  0.64523167  0.48845107  0.29187490    -0.39390
N2749       N  0.67069133  0.12330853  0.32462797    -0.38830
N2750       N  0.56987631  0.99984354  0.31321627    -0.38830
C2751       C  0.84837369  0.44435850  0.19209787    -0.05500
C2752       C  0.86525571  0.45549776  0.17266908    -0.02620
C2753       C  0.89293009  0.45294258  0.17540410     0.02370
C2754       C  0.90393214  0.43947943  0.19769167    -0.05500
C2755       C  0.88698114  0.42558529  0.21500545    -0.02600
C2756       C  0.85939101  0.42870762  0.21285319     0.02370
C2757       C  0.85414080  0.47001110  0.15011473     0.37020
C2758       C  0.89821484  0.40518282  0.23221667     0.37010
C2759       C  0.84217688  0.41518176  0.23133600     0.35430
C2760       C  0.91001973  0.46345516  0.15493243     0.35430
N2761       N  0.82791887  0.40447181  0.24569121    -0.39390
N2762       N  0.92367563  0.47177147  0.13854760    -0.39390
N2763       N  0.90844667  0.38810269  0.24408847    -0.38830
N2764       N  0.84520868  0.48152109  0.13209891    -0.38830
C2765       C  0.65276398  0.44900300  0.18996503    -0.05500
C2766       C  0.64254317  0.45248773  0.21567177    -0.02620
C2767       C  0.61528726  0.45267914  0.21994635     0.02370
C2768       C  0.59740716  0.44606008  0.19920966    -0.05500
C2769       C  0.60768672  0.44126142  0.17335550    -0.02600
C2770       C  0.63513085  0.44320610  0.16865834     0.02370
C2771       C  0.66056246  0.45423574  0.23806645     0.37020
C2772       C  0.59007035  0.43510861  0.15123798     0.37010
C2773       C  0.64494067  0.43949653  0.14182355     0.35430
C2774       C  0.60613849  0.46048806  0.24581490     0.35430
N2775       N  0.65261366  0.43645882  0.12035016    -0.39390
N2776       N  0.59950527  0.46783407  0.26651156    -0.39390
N2777       N  0.57611172  0.43008170  0.13354386    -0.38830
N2778       N  0.67628311  0.45524811  0.25478919    -0.38830
C2779       C  0.90517158  0.06515098  0.19088888    -0.05500
C2780       C  0.88784233  0.08565264  0.18197956    -0.02620
C2781       C  0.86039361  0.08077119  0.18048433     0.02370
C2782       C  0.84974561  0.05562913  0.18908373    -0.05500
C2783       C  0.86760800  0.03520509  0.19741955    -0.02600
C2784       C  0.89489387  0.03932041  0.19568654     0.02370
C2785       C  0.89800913  0.11171766  0.17398461     0.37020
C2786       C  0.85885572  0.01120677  0.21097797     0.37010
C2787       C  0.91292276  0.01682537  0.19818188     0.35430
C2788       C  0.84330416  0.10242181  0.17126973     0.35430
N2789       N  0.92861768  0.00005214  0.20025448    -0.39390
N2790       N  0.82988416  0.11978401  0.16375567    -0.39390
N2791       N  0.85303157  0.99295473  0.22400595    -0.38830
N2792       N  0.90599219  0.13245542  0.16719907    -0.38830
C2793       C  0.65311637  0.05558143  0.19278694    -0.05500
C2794       C  0.63786841  0.07172175  0.17492162    -0.02620
C2795       C  0.61032026  0.07505019  0.17847444     0.02370
C2796       C  0.59709865  0.06228832  0.19992965    -0.05500
C2797       C  0.61234194  0.04587954  0.21729109    -0.02600
C2798       C  0.63985386  0.04319985  0.21427930     0.02370
C2799       C  0.65014799  0.08533641  0.15265592     0.37020
C2800       C  0.59965149  0.03150237  0.23848989     0.37010
C2801       C  0.65473626  0.02837327  0.23412993     0.35430
C2802       C  0.59575467  0.09140906  0.15936590     0.35430
N2803       N  0.66787706  0.01701432  0.24932736    -0.39390
N2804       N  0.58435375  0.10453221  0.14403837    -0.39390
N2805       N  0.58811612  0.02036747  0.25480674    -0.38830
N2806       N  0.65962614  0.09640791  0.13484472    -0.38830
C2807       C  0.81187042  0.34425129  0.06077298    -0.05500
C2808       C  0.82066325  0.35338382  0.08576356    -0.02620
C2809       C  0.82153797  0.38123838  0.09151366     0.02370
C2810       C  0.80999475  0.40047178  0.07375421    -0.05500
C2811       C  0.79876033  0.39091514  0.04958058    -0.02600
C2812       C  0.79982838  0.36292281  0.04314870     0.02370
C2813       C  0.82949712  0.33372656  0.10539352     0.37020
C2814       C  0.78601833  0.40970295  0.03150224     0.37010
C2815       C  0.78779776  0.35299249  0.01879849     0.35430
C2816       C  0.83466189  0.38995706  0.11595374     0.35430
N2817       N  0.77765417  0.34496649  0.49962268    -0.39390
N2818       N  0.84508438  0.39682260  0.13544668    -0.39390
N2819       N  0.77607226  0.42509343  0.01726981    -0.38830
N2820       N  0.83629542  0.31795919  0.12104002    -0.38830
C2821       C  0.81355638  0.09592470  0.06914679    -0.05500
C2822       C  0.79695914  0.11264636  0.05349991    -0.02620
C2823       C  0.80242870  0.14068368  0.05068732     0.02370
C2824       C  0.82533623  0.15197194  0.06247430    -0.05500
C2825       C  0.84191312  0.13482364  0.07802041    -0.02600
C2826       C  0.83621344  0.10715920  0.08094855     0.02370
C2827       C  0.77405640  0.10092126  0.04061108     0.37020
C2828       C  0.86504205  0.14540042  0.09161511     0.37010
C2829       C  0.85349211  0.09006534  0.09692994     0.35430
C2830       C  0.78407375  0.15785894  0.03640097     0.35430
N2831       N  0.86721435  0.07641927  0.10961790    -0.39390
N2832       N  0.76902944  0.17167108  0.02559010    -0.39390
N2833       N  0.88377601  0.15286937  0.10259371    -0.38830
N2834       N  0.75599416  0.09129950  0.03012062    -0.38830
C2835       C  0.79880956  0.40119960  0.43821806    -0.05500
C2836       C  0.78626620  0.37812822  0.42657995    -0.02620
C2837       C  0.79425423  0.35170894  0.43352708     0.02370
C2838       C  0.81490164  0.34801322  0.45185296    -0.05500
C2839       C  0.82547930  0.37105484  0.46551645    -0.02600
C2840       C  0.81729226  0.39744667  0.45874924     0.02370
C2841       C  0.76570460  0.38125389  0.40654530     0.37020
C2842       C  0.84564934  0.36809512  0.48598549     0.37010
C2843       C  0.82938022  0.42078154  0.47148914     0.35430
C2844       C  0.78255527  0.32843889  0.42034581     0.35430
N2845       N  0.83906741  0.43934975  0.48166035    -0.39390
N2846       N  0.77320824  0.30992172  0.40976572    -0.39390
N2847       N  0.86207410  0.36638555  0.50202153    -0.38830
N2848       N  0.74954541  0.38328467  0.39027093    -0.38830
C2849       C  0.82473502  0.14507273  0.45523925    -0.05500
C2850       C  0.84224394  0.12246392  0.45162803    -0.02620
C2851       C  0.83240982  0.09643543  0.44596093     0.02370
C2852       C  0.80541568  0.09167678  0.44632012    -0.05500
C2853       C  0.78846204  0.11233134  0.45507100    -0.02600
C2854       C  0.79756809  0.13929755  0.45767278     0.02370
C2855       C  0.87052265  0.12478450  0.45457659     0.37020
C2856       C  0.76216210  0.10514763  0.46314008     0.37010
C2857       C  0.77875585  0.16070675  0.46243037     0.35430
C2858       C  0.85012358  0.07424507  0.43975358     0.35430
N2859       N  0.76357594  0.17776701  0.46595138    -0.39390
N2860       N  0.86425808  0.05660754  0.43481026    -0.39390
N2861       N  0.74153028  0.09901952  0.47049402    -0.38830
N2862       N  0.89303153  0.12609752  0.45771818    -0.38830
C2863       C  0.93963822  0.31074797  0.34458461    -0.05500
C2864       C  0.95864003  0.29504163  0.35822702    -0.02620
C2865       C  0.95789070  0.29244679  0.38643728     0.02370
C2866       C  0.93895296  0.30706995  0.40164384    -0.05500
C2867       C  0.91932052  0.32184454  0.38729505    -0.02600
C2868       C  0.91860733  0.32145757  0.35917806     0.02370
C2869       C  0.97951480  0.28214086  0.34330249     0.37020
C2870       C  0.89962317  0.33802746  0.40077967     0.37010
C2871       C  0.89562488  0.33164599  0.34512004     0.35430
C2872       C  0.97671316  0.27452947  0.39926647     0.35430
N2873       N  0.87649320  0.33892962  0.33472522    -0.39390
N2874       N  0.99177845  0.26001797  0.40914231    -0.39390
N2875       N  0.88390934  0.35129601  0.41107335    -0.38830
N2876       N  0.99609901  0.27161256  0.33150224    -0.38830
C2877       C  0.93545733  0.30921427  0.10241411    -0.05500
C2878       C  0.95530415  0.29585590  0.11760044    -0.02620
C2879       C  0.95660369  0.29848998  0.14574609     0.02370
C2880       C  0.93934572  0.31590508  0.15933496    -0.05500
C2881       C  0.91887494  0.32841503  0.14466687    -0.02600
C2882       C  0.91719160  0.32564290  0.11650875     0.02370
C2883       C  0.97647746  0.28221889  0.10405847     0.37020
C2884       C  0.90028870  0.34553863  0.15866551     0.37010
C2885       C  0.89840625  0.34229269  0.10215108     0.35430
C2886       C  0.97726596  0.28516292  0.16070154     0.35430
N2887       N  0.88401623  0.35616586  0.09053294    -0.39390
N2888       N  0.99345958  0.27481335  0.17334825    -0.39390
N2889       N  0.88547842  0.35907541  0.16994095    -0.38830
N2890       N  0.99322872  0.27239835  0.09199672    -0.38830
C2891       C  0.93050262  0.18817908  0.34695647    -0.05500
C2892       C  0.93133046  0.21552429  0.35491359    -0.02620
C2893       C  0.92930314  0.22197576  0.38267875     0.02370
C2894       C  0.93341202  0.20151916  0.40217271    -0.05500
C2895       C  0.93041630  0.17452454  0.39358595    -0.02600
C2896       C  0.92434024  0.16916065  0.36682095     0.02370
C2897       C  0.92995299  0.23625575  0.33472328     0.37020
C2898       C  0.93465568  0.15197355  0.41150177     0.37010
C2899       C  0.90868675  0.14582897  0.35986198     0.35430
C2900       C  0.91491781  0.24574987  0.39057483     0.35430
N2901       N  0.89472027  0.12843817  0.35379557    -0.39390
N2902       N  0.90120338  0.26319611  0.39703358    -0.39390
N2903       N  0.93898998  0.13381271  0.42537878    -0.38830
N2904       N  0.92839950  0.25241769  0.31811991    -0.38830
C2905       C  0.93975455  0.21041688  0.10469815    -0.05500
C2906       C  0.96481234  0.21038050  0.11675055    -0.02620
C2907       C  0.96749855  0.20750657  0.14459361     0.02370
C2908       C  0.94581536  0.20032144  0.16031379    -0.05500
C2909       C  0.92047845  0.20170756  0.14873448    -0.02600
C2910       C  0.91739593  0.20822628  0.12127098     0.02370
C2911       C  0.98774726  0.21065855  0.09999267     0.37020
C2912       C  0.89773707  0.19634626  0.16503047     0.37010
C2913       C  0.89138883  0.21320470  0.11031398     0.35430
C2914       C  0.99244534  0.21241957  0.15744695     0.35430
N2915       N  0.87060310  0.21742384  0.10169915    -0.39390
N2916       N  0.51183719  0.21759946  0.16840446    -0.39390
N2917       N  0.87955057  0.19207378  0.17805317    -0.38830
N2918       N  0.50500196  0.21058661  0.08516999    -0.38830
C2919       C  0.68752759  0.40283370  0.43450018    -0.05500
C2920       C  0.70431423  0.38445182  0.44796314    -0.02620
C2921       C  0.69807015  0.35650502  0.44908460     0.02370
C2922       C  0.67470403  0.34672978  0.43697104    -0.05500
C2923       C  0.65819831  0.36530213  0.42323727    -0.02600
C2924       C  0.66412021  0.39309568  0.42289526     0.02370
C2925       C  0.72789938  0.39445586  0.46091281     0.37020
C2926       C  0.63458265  0.35594941  0.40960557     0.37010
C2927       C  0.64590652  0.41198569  0.41051621     0.35430
C2928       C  0.71524464  0.33802213  0.46334054     0.35430
N2929       N  0.63105401  0.42695869  0.40104877    -0.39390
N2930       N  0.72880554  0.32296114  0.47453608    -0.39390
N2931       N  0.61566031  0.34903410  0.39859213    -0.38830
N2932       N  0.74657728  0.40248458  0.47156485    -0.38830
C2933       C  0.68909516  0.09751835  0.43337991    -0.05500
C2934       C  0.70377659  0.12109350  0.42655456    -0.02620
C2935       C  0.69377532  0.14729383  0.43153578     0.02370
C2936       C  0.66775162  0.15052127  0.44026068    -0.05500
C2937       C  0.65199800  0.12667152  0.44333562    -0.02600
C2938       C  0.66344416  0.10070190  0.44258279     0.02370
C2939       C  0.72848944  0.11876922  0.41245423     0.37020
C2940       C  0.62352352  0.12799832  0.44503265     0.37010
C2941       C  0.64797490  0.07693289  0.44893006     0.35430
C2942       C  0.70952609  0.17081580  0.42518594     0.35430
N2943       N  0.63572837  0.05798945  0.45412879    -0.39390
N2944       N  0.72208884  0.18950096  0.41984677    -0.39390
N2945       N  0.60082533  0.12877316  0.44625384    -0.38830
N2946       N  0.74791950  0.11751141  0.40070575    -0.38830
C2947       C  0.69611840  0.34783050  0.04383602    -0.05500
C2948       C  0.68720625  0.37140924  0.03017663    -0.02620
C2949       C  0.69554810  0.39735230  0.03839473     0.02370
C2950       C  0.71177125  0.40001349  0.06102040    -0.05500
C2951       C  0.72365124  0.37637722  0.07211370    -0.02600
C2952       C  0.71591944  0.35038277  0.06334032     0.02370
C2953       C  0.66744991  0.36953729  0.00924174     0.37020
C2954       C  0.74289929  0.37845264  0.09356934     0.37010
C2955       C  0.72643471  0.32638926  0.07620258     0.35430
C2956       C  0.68565965  0.42129402  0.02493452     0.35430
N2957       N  0.73482764  0.30728718  0.08653169    -0.39390
N2958       N  0.67785095  0.44032933  0.51403501    -0.39390
N2959       N  0.75796312  0.37966565  0.11097473    -0.38830
N2960       N  0.65115829  0.36896701  0.49300759    -0.38830
C2961       C  0.70458584  0.09925206  0.06359590    -0.05500
C2962       C  0.71731945  0.12297969  0.07358463    -0.02620
C2963       C  0.70918044  0.14895953  0.06519906     0.02370
C2964       C  0.68796592  0.15158453  0.04730105    -0.05500
C2965       C  0.67691952  0.12779678  0.03556079    -0.02600
C2966       C  0.68559938  0.10183749  0.04332449     0.02370
C2967       C  0.73827093  0.12101568  0.09335461     0.37020
C2968       C  0.65491380  0.12966933  0.01711324     0.37010
C2969       C  0.67340314  0.07782395  0.03203478     0.35430
C2970       C  0.72107698  0.17295991  0.07682845     0.35430
N2971       N  0.66365678  0.05871291  0.02297830    -0.39390
N2972       N  0.73055448  0.19206514  0.08619098    -0.39390
N2973       N  0.63661926  0.13111168  0.00334291    -0.38830
N2974       N  0.75480489  0.11987821  0.10932981    -0.38830
C2975       C  0.55490675  0.30310005  0.41174856    -0.05500
C2976       C  0.57429726  0.29640400  0.39263290    -0.02620
C2977       C  0.56962846  0.30086534  0.36494924     0.02370
C2978       C  0.54641023  0.31394770  0.35630887    -0.05500
C2979       C  0.52753865  0.32141798  0.37592155    -0.02600
C2980       C  0.53138930  0.31510588  0.40309716     0.02370
C2981       C  0.59997228  0.28732018  0.40154442     0.37020
C2982       C  0.50558033  0.33889968  0.36927739     0.37010
C2983       C  0.51234282  0.32391331  0.42276723     0.35430
C2984       C  0.58975818  0.29440171  0.34566333     0.35430
N2985       N  0.99733301  0.33103398  0.43851075    -0.39390
N2986       N  0.60584353  0.28931073  0.33025704    -0.39390
N2987       N  0.98853033  0.35388878  0.36539390    -0.38830
N2988       N  0.62085823  0.28109045  0.40850409    -0.38830
C2989       C  0.57556079  0.30691553  0.11297589    -0.05500
C2990       C  0.56300115  0.28902806  0.13116714    -0.02620
C2991       C  0.56347174  0.29402862  0.15901195     0.02370
C2992       C  0.57335673  0.31846486  0.16895366    -0.05500
C2993       C  0.58861256  0.33465009  0.15189564    -0.02600
C2994       C  0.58977292  0.32910217  0.12418371     0.02370
C2995       C  0.54825611  0.26595831  0.12211105     0.37020
C2996       C  0.60268118  0.35759723  0.16310250     0.37010
C2997       C  0.60441214  0.34755284  0.10747431     0.35430
C2998       C  0.55352477  0.27427425  0.17767939     0.35430
N2999       N  0.61615684  0.36244145  0.09438450    -0.39390
N3000       N  0.54625149  0.25871475  0.19314796    -0.39390
N3001       N  0.61406756  0.37567977  0.17223225    -0.38830
N3002       N  0.53577419  0.24724021  0.11672878    -0.38830
C3003       C  0.54220991  0.19372398  0.35738288    -0.05500
C3004       C  0.56570347  0.20609703  0.36606247    -0.02620
C3005       C  0.57015043  0.21077236  0.39366651     0.02370
C3006       C  0.55004317  0.20575277  0.41242723    -0.05500
C3007       C  0.52591344  0.19527320  0.40355777    -0.02600
C3008       C  0.52241668  0.18819367  0.37651985     0.02370
C3009       C  0.58615008  0.21175804  0.34692862     0.37020
C3010       C  0.50610191  0.18813093  0.42299467     0.37010
C3011       C  0.50016607  0.17133017  0.36961127     0.35430
C3012       C  0.59621782  0.21813363  0.40293710     0.35430
N3013       N  0.48338075  0.15627511  0.36506125    -0.39390
N3014       N  0.61729697  0.22301613  0.41031646    -0.39390
N3015       N  0.49076290  0.18201566  0.43875838    -0.38830
N3016       N  0.60242646  0.21638059  0.33162870    -0.38830
C3017       C  0.55977701  0.18586228  0.16347554    -0.05500
C3018       C  0.54595757  0.17273449  0.14201383    -0.02620
C3019       C  0.55231280  0.17802736  0.11541751     0.02370
C3020       C  0.57039716  0.19832326  0.10943870    -0.05500
C3021       C  0.58428500  0.21161544  0.13026250    -0.02600
C3022       C  0.57918196  0.20514748  0.15730724     0.02370
C3023       C  0.52443183  0.15403803  0.14668247     0.37020
C3024       C  0.60380290  0.23181285  0.12375213     0.37010
C3025       C  0.59417486  0.21781161  0.17859999     0.35430
C3026       C  0.54027821  0.16228506  0.09397115     0.35430
N3027       N  0.60615020  0.22798219  0.19560876    -0.39390
N3028       N  0.53077626  0.14974580  0.07690362    -0.39390
N3029       N  0.61928984  0.24801220  0.11846455    -0.38830
N3030       N  0.50741451  0.13891671  0.14986710    -0.38830
N3031       N  0.66395127  0.21608710  0.52678060    -0.06280
N3032       N  0.68477998  0.20127850  0.53378819    -0.58400
N3033       N  0.63234645  0.20209529  0.97148393    -0.05960
N3034       N  0.63314411  0.17912635  0.95871251    -0.60530
N3035       N  0.65419640  0.21589814  0.96843912    -0.05560
N3036       N  0.67086114  0.20074512  0.95441197    -0.58380
N3037       N  0.64243861  0.20197765  0.53132058    -0.05240
N3038       N  0.64806182  0.17885095  0.54268894    -0.60880
C3039       C  0.67429700  0.17811020  0.54385259     0.95900
C3040       C  0.65698400  0.17778384  0.94812987     0.95670
N3041       N  0.55633220  0.22430913  0.98071659    -0.06470
N3042       N  0.54351616  0.22679719  0.95770567    -0.58980
N3043       N  0.58377512  0.20542212  0.54104030    -0.04590
N3044       N  0.58900515  0.19339896  0.56396462    -0.60230
N3045       N  0.56573834  0.22411128  0.54384450    -0.06500
N3046       N  0.55840511  0.22535847  0.56901208    -0.59250
N3047       N  0.57439719  0.20550794  0.97869384    -0.04230
N3048       N  0.57440759  0.19501770  0.95445369    -0.60320
Mn3049     Mn  0.60778709  0.20365741  0.50589098     1.18440
C3050       C  0.55507196  0.20836932  0.94158541     0.97980
C3051       C  0.57319919  0.20623161  0.58124526     0.98640
N3052       N  0.65669244  0.28491130  0.96844529    -0.06520
N3053       N  0.67418442  0.29727502  0.95304568    -0.62820
N3054       N  0.64640535  0.30083714  0.53157434    -0.05320
N3055       N  0.65424532  0.32394483  0.54170121    -0.63500
N3056       N  0.66666475  0.28484616  0.52654844    -0.06020
N3057       N  0.68876907  0.29818785  0.53214430    -0.63090
N3058       N  0.63652191  0.30126833  0.97199207    -0.04920
N3059       N  0.63903563  0.32343701  0.95815689    -0.63780
Mn3060     Mn  0.66163216  0.25036919  0.99729271     1.10660
C3061       C  0.66232711  0.32118282  0.94633602     0.99200
C3062       C  0.68046745  0.32248878  0.54177898     0.99280
N3063       N  0.56698533  0.28514778  0.54464023    -0.06030
N3064       N  0.55902112  0.28445072  0.56978735    -0.61400
N3065       N  0.57822992  0.30271230  0.97877053    -0.05350
N3066       N  0.57974089  0.31229972  0.95422455    -0.58130
N3067       N  0.55868692  0.28557851  0.98068426    -0.06660
N3068       N  0.54639676  0.28343208  0.95731683    -0.60970
N3069       N  0.58663317  0.30202932  0.54235646    -0.05650
N3070       N  0.59230624  0.31309290  0.56574673    -0.58160
Mn3071     Mn  0.56038167  0.25488604  0.51265187     1.20190
Mn3072     Mn  0.61142707  0.30196772  0.00657100     1.10090
Cl3073     Cl  0.61100519  0.25276502  0.50565786    -0.86130
C3074       C  0.57487604  0.30222282  0.58294774     0.96210
C3075       C  0.55982551  0.30017438  0.94102707     0.96000
N3076       N  0.94114853  0.22658581  0.53522482    -0.06280
N3077       N  0.95064291  0.23030576  0.55966388    -0.58400
N3078       N  0.92321874  0.20539576  0.97207769    -0.05960
N3079       N  0.91913946  0.19354952  0.94883821    -0.60530
N3080       N  0.94013580  0.22523558  0.96987286    -0.05560
N3081       N  0.94734584  0.22749250  0.94446590    -0.58380
N3082       N  0.92317205  0.20763133  0.53557264    -0.05240
N3083       N  0.92000721  0.19824580  0.56002493    -0.60880
C3084       C  0.93731952  0.21246462  0.57493532     0.95900
C3085       C  0.93424927  0.20721352  0.93165224     0.95670
N3086       N  0.84166003  0.21357287  0.97414995    -0.06470
N3087       N  0.82277878  0.19653016  0.96616451    -0.58980
N3088       N  0.86422406  0.20196706  0.53344946    -0.04590
N3089       N  0.86151652  0.17920776  0.54632374    -0.60230
N3090       N  0.84204621  0.21578927  0.53280390    -0.06500
N3091       N  0.82343752  0.20116004  0.54462010    -0.59250
N3092       N  0.86434724  0.20074161  0.97310005    -0.04230
N3093       N  0.86145951  0.17662230  0.96288192    -0.60320
Mn3094     Mn  0.89435818  0.20397532  0.50363452     1.18440
C3095       C  0.83573689  0.17336065  0.95894526     0.97980
C3096       C  0.83634996  0.17855333  0.55355578     0.98640
N3097       N  0.93924101  0.28643922  0.97021677    -0.06520
N3098       N  0.95087415  0.28612214  0.94667476    -0.62820
N3099       N  0.91783011  0.30460973  0.53293093    -0.05320
N3100       N  0.91439026  0.31597982  0.55656039    -0.63500
N3101       N  0.93787528  0.28793922  0.53363493    -0.06020
N3102       N  0.94828177  0.28780808  0.55792163    -0.63090
N3103       N  0.91945115  0.30329993  0.96985994    -0.04920
N3104       N  0.91739965  0.31485416  0.94626187    -0.63780
Mn3105     Mn  0.94128782  0.25637789  0.50219862     1.10660
C3106       C  0.93714898  0.30420582  0.93169635     0.99200
C3107       C  0.93369466  0.30560455  0.57224441     0.99280
N3108       N  0.83784717  0.28469853  0.53030336    -0.06030
N3109       N  0.81736129  0.29611780  0.54233165    -0.61400
N3110       N  0.85976807  0.29832678  0.96903081    -0.05350
N3111       N  0.85441619  0.32105934  0.95689516    -0.58130
N3112       N  0.83841695  0.28338981  0.97183429    -0.06660
N3113       N  0.81777719  0.29787548  0.96359208    -0.60970
N3114       N  0.85743383  0.30218307  0.52955918    -0.05650
N3115       N  0.85120758  0.32470710  0.54177193    -0.58160
Mn3116     Mn  0.83885467  0.24937146  0.50225833     1.20190
Mn3117     Mn  0.88889935  0.30229656  0.50039849     1.10090
Cl3118     Cl  0.89052982  0.25306717  0.50220154    -0.86130
C3119       C  0.82647279  0.32096892  0.54963625     0.96210
C3120       C  0.82837352  0.32132779  0.95424095     0.96000
N3121       N  0.72502379  0.03473421  0.58774591    -0.06280
N3122       N  0.71707950  0.04929596  0.56682778    -0.58400
N3123       N  0.78137799  0.05122920  0.61131904    -0.05960
N3124       N  0.79392923  0.07386413  0.60707629    -0.60530
N3125       N  0.78277398  0.03494452  0.59045276    -0.05560
N3126       N  0.79553686  0.04749323  0.57096845    -0.58380
N3127       N  0.72215462  0.04953519  0.60958319    -0.05240
N3128       N  0.71103554  0.07278453  0.60413719    -0.60880
C3129       C  0.70831145  0.07295334  0.57764410     0.95900
C3130       C  0.80274198  0.07154718  0.58217435     0.95670
N3131       N  0.78316568  0.03136984  0.68998624    -0.06470
N3132       N  0.80736380  0.03025573  0.69991868    -0.58980
N3133       N  0.71994032  0.04972664  0.67077291    -0.04590
N3134       N  0.69690495  0.06209134  0.66925661    -0.60230
N3135       N  0.72006096  0.03170783  0.68982353    -0.06500
N3136       N  0.69682640  0.03137893  0.70142151    -0.59250
N3137       N  0.78179705  0.05032201  0.67180024    -0.04230
N3138       N  0.80463222  0.06261878  0.66942104    -0.60320
Mn3139     Mn  0.75109786  0.05029697  0.64134171     1.18440
C3140       C  0.82055105  0.05035555  0.68734277     0.97980
C3141       C  0.68238145  0.05066436  0.68868016     0.98640
N3142       N  0.78349970  0.46545457  0.59112887    -0.06520
N3143       N  0.79552904  0.45089280  0.57232400    -0.62820
N3144       N  0.72337052  0.45047426  0.60874163    -0.05320
N3145       N  0.71444294  0.42640676  0.60245166    -0.63500
N3146       N  0.72613027  0.46551996  0.58715379    -0.06020
N3147       N  0.72044128  0.45055935  0.56575262    -0.63090
N3148       N  0.78261440  0.45084214  0.61306100    -0.04920
N3149       N  0.79501063  0.42798586  0.61027654    -0.63120
Mn3150     Mn  0.75449001  0.00021018  0.58799384     1.10660
C3151       C  0.80314779  0.42763835  0.58513207     0.99200
C3152       C  0.71316295  0.42620452  0.57581480     0.99280
N3153       N  0.71972255  0.47023567  0.68909132    -0.06030
N3154       N  0.69608513  0.47176328  0.69959404    -0.61400
N3155       N  0.78164709  0.45053259  0.67254574    -0.05350
N3156       N  0.80426914  0.43750211  0.67094652    -0.58130
N3157       N  0.78256851  0.46901062  0.69127713    -0.06660
N3158       N  0.80607940  0.46883113  0.70292341    -0.60970
N3159       N  0.71967640  0.45219069  0.66989513    -0.05650
N3160       N  0.69625690  0.44090284  0.66710059    -0.58160
Mn3161     Mn  0.75156594  0.50060949  0.69158623     1.20190
Mn3162     Mn  0.75150090  0.45113880  0.64150259     1.10090
Cl3163     Cl  0.75215896  0.50063286  0.63997768    -0.86130
C3164       C  0.68165232  0.45315981  0.68595317     0.96210
C3165       C  0.81930360  0.44872281  0.69024843     0.96000
N3166       N  0.71497722  0.03036739  0.81522971    -0.06280
N3167       N  0.69137980  0.03016454  0.80366982    -0.58400
N3168       N  0.77774059  0.05066419  0.83546322    -0.05960
N3169       N  0.80040871  0.06369086  0.83724837    -0.60530
N3170       N  0.77810373  0.03275782  0.81610599    -0.05560
N3171       N  0.80138073  0.03316660  0.80462647    -0.58380
N3172       N  0.71588352  0.04929154  0.83355969    -0.05240
N3173       N  0.69325208  0.06233810  0.83474496    -0.60880
C3174       C  0.67800319  0.05059397  0.81583701     0.95900
C3175       C  0.81516177  0.05286148  0.81761317     0.95670
N3176       N  0.77493060  0.03366674  0.91789127    -0.06470
N3177       N  0.78694213  0.04461714  0.93893509    -0.58980
N3178       N  0.71560812  0.04793384  0.89301998    -0.04590
N3179       N  0.70252855  0.07039625  0.89604912    -0.60230
N3180       N  0.71671358  0.03369960  0.91524411    -0.06500
N3181       N  0.70561861  0.04829581  0.93457713    -0.59250
N3182       N  0.77485784  0.05095428  0.89781625    -0.04230
N3183       N  0.78712343  0.07332968  0.90465250    -0.60320
Mn3184     Mn  0.74636189  0.04983414  0.86464450     1.18440
C3185       C  0.79470143  0.06920012  0.93004245     0.97980
C3186       C  0.69673316  0.07102784  0.92178025     0.98640
N3187       N  0.78071237  0.47094139  0.81526860    -0.06520
N3188       N  0.80409468  0.47262758  0.80392405    -0.62820
N3189       N  0.72017158  0.44808694  0.83428134    -0.05320
N3190       N  0.69849219  0.43365679  0.83677510    -0.63500
N3191       N  0.71736476  0.46696368  0.81613057    -0.06020
N3192       N  0.69315869  0.46575288  0.80619864    -0.63090
N3193       N  0.78131201  0.45243811  0.83394718    -0.04920
N3194       N  0.80462509  0.44083594  0.83547487    -0.63780
Mn3195     Mn  0.74752999  0.00023144  0.81400813     1.10660
C3196       C  0.81861866  0.45334551  0.81648385     0.99200
C3197       C  0.68179765  0.44437442  0.81874680     0.99280
N3198       N  0.71898019  0.46412868  0.91507640    -0.06030
N3199       N  0.70558410  0.45138619  0.93401418    -0.61400
N3200       N  0.78084643  0.45243364  0.89466329    -0.05350
N3201       N  0.79321684  0.42967684  0.89917484    -0.58130
N3202       N  0.77699442  0.46596074  0.91704985    -0.06660
N3203       N  0.78517345  0.45078466  0.93742506    -0.60970
N3204       N  0.72118753  0.44798025  0.89422623    -0.05650
N3205       N  0.70856124  0.42528703  0.89778988    -0.58160
Mn3206     Mn  0.74667296  0.99939572  0.91746934     1.20190
Mn3207     Mn  0.75105964  0.45029261  0.86395175     1.10090
Cl3208     Cl  0.74789424  0.99998189  0.86521258    -0.86130
C3209       C  0.69884576  0.42737786  0.92231844     0.96210
C3210       C  0.79533966  0.42822701  0.92566147     0.96000
N3211       N  0.53008009  0.17099738  0.72493272    -0.06280
N3212       N  0.54268560  0.18998842  0.71115667    -0.58400
N3213       N  0.97243432  0.15236355  0.70376078    -0.05960
N3214       N  0.96015639  0.15828170  0.68128702    -0.60530
N3215       N  0.97109847  0.17281716  0.72062617    -0.05560
N3216       N  0.95865126  0.19341196  0.70896646    -0.58380
N3217       N  0.53342821  0.14773087  0.71262999    -0.05240
N3218       N  0.55047250  0.14967752  0.69345715    -0.60880
C3219       C  0.55533438  0.17602735  0.69132164     0.95900
C3220       C  0.95118495  0.18365274  0.68458423     0.95670
N3221       N  0.96877830  0.06991711  0.72076942    -0.06470
N3222       N  0.94589884  0.05758704  0.71862316    -0.58980
N3223       N  0.53146789  0.08782858  0.70709706    -0.04590
N3224       N  0.55427435  0.08825059  0.69471126    -0.60230
N3225       N  0.53080062  0.06816779  0.72442872    -0.06500
N3226       N  0.55333432  0.05475055  0.72403551    -0.59250
N3227       N  0.97003763  0.08962092  0.70329984    -0.04230
N3228       N  0.94819949  0.09095039  0.68884000    -0.60320
Mn3229     Mn  0.50160123  0.11940071  0.70631956     1.18440
C3230       C  0.93330512  0.07057925  0.69836937     0.97980
C3231       C  0.56802465  0.06736115  0.70518653     0.98640
N3232       N  0.96605667  0.17074989  0.78768037    -0.06520
N3233       N  0.95208480  0.18989478  0.80011444    -0.62820
N3234       N  0.52476801  0.14892109  0.80689090    -0.05320
N3235       N  0.53547111  0.15336583  0.83038680    -0.63500
N3236       N  0.52447497  0.17116190  0.79241135    -0.06020
N3237       N  0.53351872  0.19157801  0.80727928    -0.63090
N3238       N  0.96453418  0.14810464  0.80143332    -0.04920
N3239       N  0.94850618  0.15081761  0.82142121    -0.63780
Mn3240     Mn  0.99789372  0.17280102  0.75631512     1.10660
C3241       C  0.94073342  0.17672219  0.82110727     0.99200
C3242       C  0.54069905  0.17988172  0.83087696     0.99280
N3243       N  0.52801227  0.06830890  0.78606427    -0.06030
N3244       N  0.55157279  0.05705921  0.78644345    -0.61400
N3245       N  0.96495086  0.08583027  0.80110339    -0.05350
N3246       N  0.94248993  0.08492253  0.81411447    -0.58130
N3247       N  0.96566681  0.06704368  0.78265156    -0.06660
N3248       N  0.94347110  0.05305871  0.78265946    -0.60970
N3249       N  0.52684176  0.08735989  0.80432767    -0.05650
N3250       N  0.54947256  0.08944411  0.81741193    -0.58160
Mn3251     Mn  0.49824073  0.06691723  0.75350566     1.20190
Mn3252     Mn  0.49522061  0.11730349  0.80360750     1.10090
Cl3253     Cl  0.49795467  0.11925487  0.75495532    -0.86130
C3254       C  0.56472750  0.07022018  0.80624738     0.96210
C3255       C  0.92915877  0.06414560  0.80272405     0.96000
N3256       N  0.53243025  0.43985814  0.72563484    -0.06280
N3257       N  0.55503758  0.45314426  0.72528616    -0.58400
N3258       N  0.97080242  0.42053962  0.70480122    -0.05960
N3259       N  0.94849158  0.41915517  0.69108833    -0.60530
N3260       N  0.96943727  0.43899979  0.72365632    -0.05560
N3261       N  0.94569751  0.45011254  0.72334240    -0.58380
N3262       N  0.53237135  0.42110407  0.70710750    -0.05240
N3263       N  0.55465926  0.42122598  0.69382924    -0.60880
C3264       C  0.56873829  0.44148104  0.70506586     0.95900
C3265       C  0.93306931  0.43812721  0.70238211     0.95670
N3266       N  0.97239198  0.33694901  0.71904623    -0.06470
N3267       N  0.95817849  0.31768412  0.70711635    -0.58980
N3268       N  0.53229883  0.35929367  0.70704173    -0.04590
N3269       N  0.54920109  0.35627654  0.68770621    -0.60230
N3270       N  0.53240186  0.33816438  0.72308071    -0.06500
N3271       N  0.54918371  0.31984837  0.71372081    -0.59250
N3272       N  0.97258064  0.35849662  0.70358256    -0.04230
N3273       N  0.95813814  0.35479743  0.68206891    -0.60320
Mn3274     Mn  0.00199141  0.39005129  0.70534233     1.18440
C3275       C  0.94890615  0.32956807  0.68424958     0.97980
C3276       C  0.55996376  0.33189021  0.69184910     0.98640
N3277       N  0.96834790  0.43890712  0.78538567    -0.06520
N3278       N  0.94547177  0.45179083  0.78531663    -0.62820
N3279       N  0.52938253  0.41824454  0.80613753    -0.05320
N3280       N  0.55170296  0.41509027  0.81953336    -0.63500
N3281       N  0.53142119  0.43723759  0.78802218    -0.06020
N3282       N  0.55561841  0.44712390  0.78877214    -0.63090
N3283       N  0.96795289  0.41920506  0.80283569    -0.04920
N3284       N  0.94516669  0.41828115  0.81509002    -0.63780
Mn3285     Mn  0.00050533  0.44033816  0.75574773     1.10660
C3286       C  0.93130692  0.43879748  0.80419260     0.99200
C3287       C  0.56794334  0.43353130  0.80893676     0.99280
N3288       N  0.52787564  0.33541065  0.79081940    -0.06030
N3289       N  0.53683343  0.31500082  0.80582028    -0.61400
N3290       N  0.96811603  0.35683098  0.80163553    -0.05350
N3291       N  0.95361348  0.35156573  0.82246153    -0.58130
N3292       N  0.96974546  0.33545454  0.78591087    -0.06660
N3293       N  0.95752219  0.31472928  0.79728403    -0.60970
N3294       N  0.52866271  0.35767427  0.80531094    -0.05650
N3295       N  0.53997807  0.35345771  0.82850070    -0.58160
Mn3296     Mn  0.00072177  0.33516510  0.75444398     1.20190
Mn3297     Mn  0.99831817  0.38829984  0.80396693     1.10090
Cl3298     Cl  0.00034659  0.38827457  0.75484611    -0.86130
C3299       C  0.54470818  0.32692207  0.82928008     0.96210
C3300       C  0.94701319  0.32545932  0.81989463     0.96000
C3301       C  0.84749417  0.44959600  0.81374028    -0.05500
C3302       C  0.85783543  0.42382519  0.80791624    -0.02620
C3303       C  0.88522279  0.42020359  0.80557493     0.02370
C3304       C  0.90253118  0.44246578  0.80833553    -0.05500
C3305       C  0.89237245  0.46752318  0.81691133    -0.02600
C3306       C  0.86500591  0.47067756  0.82067150     0.02370
C3307       C  0.84040876  0.40068379  0.80586887     0.37020
C3308       C  0.91040304  0.48882387  0.82475519     0.37010
C3309       C  0.85534186  0.49295714  0.83655815     0.35430
C3310       C  0.89551324  0.39333116  0.80100387     0.35430
N3311       N  0.84744956  0.00944698  0.85079879    -0.39390
N3312       N  0.90380581  0.37187019  0.79735447    -0.39390
N3313       N  0.92521842  0.00531756  0.83136214    -0.38830
N3314       N  0.82654459  0.38217922  0.80454654    -0.38830
C3315       C  0.65286393  0.43836548  0.81865333    -0.05500
C3316       C  0.64165632  0.42009406  0.80007887    -0.02620
C3317       C  0.61393817  0.41784271  0.79749810     0.02370
C3318       C  0.59713722  0.43338958  0.81393816    -0.05500
C3319       C  0.60845328  0.44862104  0.83498903    -0.02600
C3320       C  0.63614312  0.45153161  0.83704161     0.02370
C3321       C  0.65865254  0.40349689  0.78374818     0.37020
C3322       C  0.59163837  0.46120104  0.85462292     0.37010
C3323       C  0.64744913  0.46922190  0.85723342     0.35430
C3324       C  0.60264015  0.39995237  0.77748702     0.35430
N3325       N  0.65656249  0.48336565  0.87325853    -0.39390
N3326       N  0.59357821  0.38574818  0.76148457    -0.39390
N3327       N  0.57823454  0.47114555  0.87040310    -0.38830
N3328       N  0.67224846  0.39017536  0.77078354    -0.38830
C3329       C  0.84439274  0.05759774  0.81399225    -0.05500
C3330       C  0.85652222  0.04843764  0.79042774    -0.02620
C3331       C  0.88409957  0.04685708  0.78839229     0.02370
C3332       C  0.90047923  0.05856018  0.80808670    -0.05500
C3333       C  0.88874474  0.06679416  0.83228116    -0.02600
C3334       C  0.86094763  0.06732124  0.83492121     0.02370
C3335       C  0.84022363  0.04219323  0.76764683     0.37020
C3336       C  0.90531992  0.07123451  0.85559858     0.37010
C3337       C  0.84978821  0.07779002  0.85932433     0.35430
C3338       C  0.89535625  0.02896698  0.76882541     0.35430
N3339       N  0.84104548  0.08666689  0.87869105    -0.39390
N3340       N  0.90487034  0.01317491  0.75489629    -0.39390
N3341       N  0.91851429  0.07447812  0.87427987    -0.38830
N3342       N  0.82527809  0.03827118  0.75064448    -0.38830
C3343       C  0.59336813  0.06598575  0.81210998    -0.05500
C3344       C  0.60339061  0.03957156  0.81135738    -0.02620
C3345       C  0.63063122  0.03502877  0.80954103     0.02370
C3346       C  0.64886802  0.05627184  0.81329444    -0.05500
C3347       C  0.63871033  0.08276899  0.81713204    -0.02600
C3348       C  0.61118981  0.08772564  0.81560208     0.02370
C3349       C  0.58526253  0.01699934  0.81252951     0.37020
C3350       C  0.65652388  0.10530049  0.82125162     0.37010
C3351       C  0.60150981  0.11526235  0.81700974     0.35430
C3352       C  0.63919544  0.00893243  0.80089408     0.35430
N3353       N  0.59407172  0.13735909  0.81816756    -0.39390
N3354       N  0.64523166  0.48845107  0.79187491    -0.39390
N3355       N  0.67069132  0.12330853  0.82462799    -0.38830
N3356       N  0.56987630  0.99984354  0.81321629    -0.38830
C3357       C  0.84837369  0.44435852  0.69209788    -0.05500
C3358       C  0.86525571  0.45549779  0.67266910    -0.02620
C3359       C  0.89293009  0.45294260  0.67540411     0.02370
C3360       C  0.90393214  0.43947944  0.69769167    -0.05500
C3361       C  0.88698114  0.42558529  0.71500545    -0.02600
C3362       C  0.85939101  0.42870763  0.71285320     0.02370
C3363       C  0.85414080  0.47001114  0.65011475     0.37020
C3364       C  0.89821483  0.40518280  0.73221666     0.37010
C3365       C  0.84217687  0.41518176  0.73133600     0.35430
C3366       C  0.91001973  0.46345518  0.65493244     0.35430
N3367       N  0.82791886  0.40447181  0.74569121    -0.39390
N3368       N  0.92367563  0.47177149  0.63854761    -0.39390
N3369       N  0.90844666  0.38810267  0.74408845    -0.38830
N3370       N  0.84520868  0.48152114  0.63209894    -0.38830
C3371       C  0.65276398  0.44900301  0.68996503    -0.05500
C3372       C  0.64254317  0.45248775  0.71567176    -0.02620
C3373       C  0.61528726  0.45267915  0.71994634     0.02370
C3374       C  0.59740716  0.44606009  0.69920964    -0.05500
C3375       C  0.60768673  0.44126141  0.67335549    -0.02600
C3376       C  0.63513086  0.44320610  0.66865833     0.02370
C3377       C  0.66056245  0.45423577  0.73806644     0.37020
C3378       C  0.59007036  0.43510860  0.65123797     0.37010
C3379       C  0.64494068  0.43949651  0.64182355     0.35430
C3380       C  0.60613848  0.46048809  0.74581488     0.35430
N3381       N  0.65261367  0.43645880  0.62035016    -0.39390
N3382       N  0.59950526  0.46783410  0.76651154    -0.39390
N3383       N  0.57611172  0.43008168  0.63354385    -0.38830
N3384       N  0.67628310  0.45524814  0.75478918    -0.38830
C3385       C  0.90517158  0.06515099  0.69088890    -0.05500
C3386       C  0.88784233  0.08565264  0.68197957    -0.02620
C3387       C  0.86039361  0.08077119  0.68048434     0.02370
C3388       C  0.84974561  0.05562913  0.68908374    -0.05500
C3389       C  0.86760801  0.03520509  0.69741956    -0.02600
C3390       C  0.89489387  0.03932042  0.69568656     0.02370
C3391       C  0.89800912  0.11171767  0.67398463     0.37020
C3392       C  0.85885572  0.01120677  0.71097798     0.37010
C3393       C  0.91292276  0.01682538  0.69818189     0.35430
C3394       C  0.84330415  0.10242182  0.67126975     0.35430
N3395       N  0.92861768  0.00005215  0.70025450    -0.39390
N3396       N  0.82988416  0.11978402  0.66375568    -0.39390
N3397       N  0.85303157  0.99295472  0.72400595    -0.38830
N3398       N  0.90599219  0.13245543  0.66719909    -0.38830
C3399       C  0.65311637  0.05558143  0.69278695    -0.05500
C3400       C  0.63786841  0.07172174  0.67492163    -0.02620
C3401       C  0.61032025  0.07505017  0.67847444     0.02370
C3402       C  0.59709865  0.06228832  0.69992966    -0.05500
C3403       C  0.61234195  0.04587954  0.71729111    -0.02600
C3404       C  0.63985387  0.04319985  0.71427931     0.02370
C3405       C  0.65014798  0.08533639  0.65265591     0.37020
C3406       C  0.59965149  0.03150237  0.73848991     0.37010
C3407       C  0.65473627  0.02837328  0.73412994     0.35430
C3408       C  0.59575466  0.09140904  0.65936590     0.35430
N3409       N  0.66787707  0.01701434  0.74932739    -0.39390
N3410       N  0.58435374  0.10453218  0.64403836    -0.39390
N3411       N  0.58811613  0.02036748  0.75480677    -0.38830
N3412       N  0.65962613  0.09640788  0.63484471    -0.38830
C3413       C  0.81187041  0.34425130  0.56077300    -0.05500
C3414       C  0.82066325  0.35338382  0.58576358    -0.02620
C3415       C  0.82153797  0.38123839  0.59151368     0.02370
C3416       C  0.80999475  0.40047179  0.57375422    -0.05500
C3417       C  0.79876032  0.39091515  0.54958059    -0.02600
C3418       C  0.79982837  0.36292281  0.54314872     0.02370
C3419       C  0.82949712  0.33372657  0.60539354     0.37020
C3420       C  0.78601832  0.40970295  0.53150226     0.37010
C3421       C  0.78779775  0.35299249  0.51879851     0.35430
C3422       C  0.83466189  0.38995707  0.61595375     0.35430
N3423       N  0.77765418  0.34496649  0.99962265    -0.39390
N3424       N  0.84508438  0.39682261  0.63544669    -0.39390
N3425       N  0.77607225  0.42509343  0.51726983    -0.38830
N3426       N  0.83629543  0.31795921  0.62104004    -0.38830
C3427       C  0.81355638  0.09592471  0.56914680    -0.05500
C3428       C  0.79695913  0.11264636  0.55349992    -0.02620
C3429       C  0.80242870  0.14068369  0.55068734     0.02370
C3430       C  0.82533623  0.15197195  0.56247432    -0.05500
C3431       C  0.84191311  0.13482365  0.57802042    -0.02600
C3432       C  0.83621343  0.10715921  0.58094856     0.02370
C3433       C  0.77405640  0.10092127  0.54061109     0.37020
C3434       C  0.86504205  0.14540043  0.59161512     0.37010
C3435       C  0.85349211  0.09006535  0.59692995     0.35430
C3436       C  0.78407374  0.15785895  0.53640098     0.35430
N3437       N  0.86721435  0.07641927  0.60961791    -0.39390
N3438       N  0.76902943  0.17167109  0.52559012    -0.39390
N3439       N  0.88377600  0.15286938  0.60259372    -0.38830
N3440       N  0.75599416  0.09129950  0.53012063    -0.38830
C3441       C  0.79880957  0.40119959  0.93821805    -0.05500
C3442       C  0.78626622  0.37812821  0.92657994    -0.02620
C3443       C  0.79425425  0.35170894  0.93352706     0.02370
C3444       C  0.81490167  0.34801321  0.95185294    -0.05500
C3445       C  0.82547932  0.37105483  0.96551643    -0.02600
C3446       C  0.81729228  0.39744667  0.95874922     0.02370
C3447       C  0.76570461  0.38125388  0.90654529     0.37020
C3448       C  0.84564936  0.36809512  0.98598547     0.37010
C3449       C  0.82938024  0.42078153  0.97148912     0.35430
C3450       C  0.78255529  0.32843888  0.92034579     0.35430
N3451       N  0.83906743  0.43934974  0.98166033    -0.39390
N3452       N  0.77320826  0.30992171  0.90976570    -0.39390
N3453       N  0.86207412  0.36638554  0.00202152    -0.38830
N3454       N  0.74954542  0.38328466  0.89027092    -0.38830
C3455       C  0.82473503  0.14507272  0.95523925    -0.05500
C3456       C  0.84224395  0.12246391  0.95162804    -0.02620
C3457       C  0.83240983  0.09643542  0.94596094     0.02370
C3458       C  0.80541568  0.09167677  0.94632012    -0.05500
C3459       C  0.78846205  0.11233133  0.95507100    -0.02600
C3460       C  0.79756810  0.13929754  0.95767278     0.02370
C3461       C  0.87052266  0.12478448  0.95457663     0.37020
C3462       C  0.76216211  0.10514762  0.96314008     0.37010
C3463       C  0.77875586  0.16070674  0.96243036     0.35430
C3464       C  0.85012359  0.07424505  0.93975360     0.35430
N3465       N  0.76357595  0.17776701  0.96595136    -0.39390
N3466       N  0.86425808  0.05660753  0.93481028    -0.39390
N3467       N  0.74153028  0.09901952  0.97049402    -0.38830
N3468       N  0.89303153  0.12609750  0.95771822    -0.38830
C3469       C  0.93963823  0.31074797  0.84458461    -0.05500
C3470       C  0.95864005  0.29504162  0.85822702    -0.02620
C3471       C  0.95789072  0.29244679  0.88643728     0.02370
C3472       C  0.93895298  0.30706995  0.90164385    -0.05500
C3473       C  0.91932055  0.32184455  0.88729506    -0.02600
C3474       C  0.91860735  0.32145758  0.85917807     0.02370
C3475       C  0.97951481  0.28214086  0.84330249     0.37020
C3476       C  0.89962322  0.33802748  0.90077969     0.37010
C3477       C  0.89562490  0.33164601  0.84512005     0.35430
C3478       C  0.97671318  0.27452946  0.89926647     0.35430
N3479       N  0.87649323  0.33892965  0.83472524    -0.39390
N3480       N  0.99177846  0.26001796  0.90914231    -0.39390
N3481       N  0.88390940  0.35129605  0.91107336    -0.38830
N3482       N  0.99609901  0.27161255  0.83150224    -0.38830
C3483       C  0.93545732  0.30921428  0.60241411    -0.05500
C3484       C  0.95530415  0.29585590  0.61760044    -0.02620
C3485       C  0.95660369  0.29848998  0.64574609     0.02370
C3486       C  0.93934571  0.31590508  0.65933496    -0.05500
C3487       C  0.91887493  0.32841503  0.64466687    -0.02600
C3488       C  0.91719160  0.32564291  0.61650876     0.02370
C3489       C  0.97647746  0.28221889  0.60405847     0.37020
C3490       C  0.90028869  0.34553863  0.65866551     0.37010
C3491       C  0.89840624  0.34229270  0.60215109     0.35430
C3492       C  0.97726595  0.28516293  0.66070154     0.35430
N3493       N  0.88401623  0.35616587  0.59053294    -0.39390
N3494       N  0.99345958  0.27481335  0.67334825    -0.39390
N3495       N  0.88547842  0.35907541  0.66994096    -0.38830
N3496       N  0.99322871  0.27239835  0.59199672    -0.38830
C3497       C  0.93050260  0.18817910  0.84695646    -0.05500
C3498       C  0.93133046  0.21552430  0.85491358    -0.02620
C3499       C  0.92930314  0.22197577  0.88267875     0.02370
C3500       C  0.93341201  0.20151916  0.90217270    -0.05500
C3501       C  0.93041628  0.17452455  0.89358594    -0.02600
C3502       C  0.92434021  0.16916067  0.86682093     0.02370
C3503       C  0.92995299  0.23625577  0.83472327     0.37020
C3504       C  0.93465564  0.15197355  0.91150175     0.37010
C3505       C  0.90868672  0.14582899  0.85986196     0.35430
C3506       C  0.91491782  0.24574988  0.89057483     0.35430
N3507       N  0.89472023  0.12843820  0.85379554    -0.39390
N3508       N  0.90120340  0.26319612  0.89703359    -0.39390
N3509       N  0.93898994  0.13381270  0.92537875    -0.38830
N3510       N  0.92839950  0.25241771  0.81811991    -0.38830
C3511       C  0.93975455  0.21041689  0.60469815    -0.05500
C3512       C  0.96481234  0.21038051  0.61675055    -0.02620
C3513       C  0.96749855  0.20750658  0.64459361     0.02370
C3514       C  0.94581536  0.20032145  0.66031379    -0.05500
C3515       C  0.92047845  0.20170758  0.64873448    -0.02600
C3516       C  0.91739593  0.20822629  0.62127098     0.02370
C3517       C  0.98774726  0.21065855  0.59999266     0.37020
C3518       C  0.89773708  0.19634628  0.66503047     0.37010
C3519       C  0.89138883  0.21320472  0.61031398     0.35430
C3520       C  0.99244534  0.21241957  0.65744694     0.35430
N3521       N  0.87060310  0.21742386  0.60169915    -0.39390
N3522       N  0.51183720  0.21759945  0.66840446    -0.39390
N3523       N  0.87955057  0.19207380  0.67805317    -0.38830
N3524       N  0.50500197  0.21058659  0.58516999    -0.38830
C3525       C  0.68752760  0.40283368  0.93450017    -0.05500
C3526       C  0.70431424  0.38445181  0.94796314    -0.02620
C3527       C  0.69807015  0.35650501  0.94908460     0.02370
C3528       C  0.67470403  0.34672977  0.93697103    -0.05500
C3529       C  0.65819832  0.36530212  0.92323727    -0.02600
C3530       C  0.66412021  0.39309567  0.92289526     0.02370
C3531       C  0.72789939  0.39445584  0.96091280     0.37020
C3532       C  0.63458265  0.35594940  0.90960557     0.37010
C3533       C  0.64590653  0.41198568  0.91051621     0.35430
C3534       C  0.71524464  0.33802212  0.96334054     0.35430
N3535       N  0.63105401  0.42695869  0.90104877    -0.39390
N3536       N  0.72880554  0.32296113  0.97453608    -0.39390
N3537       N  0.61566031  0.34903410  0.89859213    -0.38830
N3538       N  0.74657729  0.40248456  0.97156483    -0.38830
C3539       C  0.68909516  0.09751834  0.93337992    -0.05500
C3540       C  0.70377659  0.12109349  0.92655457    -0.02620
C3541       C  0.69377532  0.14729382  0.93153578     0.02370
C3542       C  0.66775161  0.15052126  0.94026069    -0.05500
C3543       C  0.65199799  0.12667151  0.94333563    -0.02600
C3544       C  0.66344416  0.10070189  0.94258281     0.02370
C3545       C  0.72848943  0.11876922  0.91245424     0.37020
C3546       C  0.62352352  0.12799831  0.94503266     0.37010
C3547       C  0.64797490  0.07693288  0.94893008     0.35430
C3548       C  0.70952608  0.17081579  0.92518594     0.35430
N3549       N  0.63572838  0.05798944  0.95412881    -0.39390
N3550       N  0.72208883  0.18950095  0.91984676    -0.39390
N3551       N  0.60082533  0.12877314  0.94625386    -0.38830
N3552       N  0.74791949  0.11751140  0.90070575    -0.38830
C3553       C  0.69611841  0.34783051  0.54383603    -0.05500
C3554       C  0.68720625  0.37140924  0.53017664    -0.02620
C3555       C  0.69554811  0.39735230  0.53839474     0.02370
C3556       C  0.71177125  0.40001349  0.56102040    -0.05500
C3557       C  0.72365124  0.37637722  0.57211371    -0.02600
C3558       C  0.71591944  0.35038277  0.56334034     0.02370
C3559       C  0.66744992  0.36953729  0.50924175     0.37020
C3560       C  0.74289929  0.37845264  0.59356935     0.37010
C3561       C  0.72643470  0.32638926  0.57620259     0.35430
C3562       C  0.68565966  0.42129402  0.52493452     0.35430
N3563       N  0.73482763  0.30728718  0.58653171    -0.39390
N3564       N  0.67785093  0.44032933  0.01403501    -0.39390
N3565       N  0.75796312  0.37966565  0.61097475    -0.38830
N3566       N  0.65115828  0.36896701  0.99300758    -0.38830
C3567       C  0.70458584  0.09925207  0.56359591    -0.05500
C3568       C  0.71731945  0.12297970  0.57358464    -0.02620
C3569       C  0.70918044  0.14895954  0.56519907     0.02370
C3570       C  0.68796593  0.15158454  0.54730105    -0.05500
C3571       C  0.67691953  0.12779679  0.53556079    -0.02600
C3572       C  0.68559939  0.10183750  0.54332449     0.02370
C3573       C  0.73827093  0.12101569  0.59335462     0.37020
C3574       C  0.65491382  0.12966933  0.51711323     0.37010
C3575       C  0.67340315  0.07782395  0.53203479     0.35430
C3576       C  0.72107698  0.17295992  0.57682846     0.35430
N3577       N  0.66365680  0.05871292  0.52297830    -0.39390
N3578       N  0.73055447  0.19206515  0.58619099    -0.39390
N3579       N  0.63661928  0.13111169  0.50334290    -0.38830
N3580       N  0.75480488  0.11987822  0.60932983    -0.38830
C3581       C  0.55490675  0.30310005  0.91174856    -0.05500
C3582       C  0.57429725  0.29640400  0.89263290    -0.02620
C3583       C  0.56962846  0.30086535  0.86494923     0.02370
C3584       C  0.54641023  0.31394772  0.85630887    -0.05500
C3585       C  0.52753865  0.32141801  0.87592156    -0.02600
C3586       C  0.53138929  0.31510589  0.90309716     0.02370
C3587       C  0.59997227  0.28732017  0.90154442     0.37020
C3588       C  0.50558033  0.33889971  0.86927740     0.37010
C3589       C  0.51234282  0.32391332  0.92276723     0.35430
C3590       C  0.58975817  0.29440171  0.84566332     0.35430
N3591       N  0.99733301  0.33103399  0.93851076    -0.39390
N3592       N  0.60584351  0.28931074  0.83025703    -0.39390
N3593       N  0.98853033  0.35388878  0.86539390    -0.38830
N3594       N  0.62085822  0.28109044  0.90850408    -0.38830
C3595       C  0.57556079  0.30691553  0.61297589    -0.05500
C3596       C  0.56300114  0.28902807  0.63116714    -0.02620
C3597       C  0.56347173  0.29402862  0.65901195     0.02370
C3598       C  0.57335673  0.31846486  0.66895366    -0.05500
C3599       C  0.58861256  0.33465008  0.65189564    -0.02600
C3600       C  0.58977293  0.32910217  0.62418372     0.02370
C3601       C  0.54825611  0.26595831  0.62211105     0.37020
C3602       C  0.60268118  0.35759723  0.66310251     0.37010
C3603       C  0.60441214  0.34755284  0.60747431     0.35430
C3604       C  0.55352476  0.27427425  0.67767939     0.35430
N3605       N  0.61615685  0.36244144  0.59438451    -0.39390
N3606       N  0.54625147  0.25871476  0.69314796    -0.39390
N3607       N  0.61406757  0.37567977  0.67223225    -0.38830
N3608       N  0.53577419  0.24724021  0.61672878    -0.38830
C3609       C  0.54220991  0.19372399  0.85738288    -0.05500
C3610       C  0.56570347  0.20609703  0.86606248    -0.02620
C3611       C  0.57015043  0.21077235  0.89366652     0.02370
C3612       C  0.55004317  0.20575277  0.91242723    -0.05500
C3613       C  0.52591343  0.19527321  0.90355776    -0.02600
C3614       C  0.52241667  0.18819369  0.87651984     0.02370
C3615       C  0.58615009  0.21175803  0.84692863     0.37020
C3616       C  0.50610190  0.18813095  0.92299466     0.37010
C3617       C  0.50016605  0.17133020  0.86961126     0.35430
C3618       C  0.59621782  0.21813362  0.90293711     0.35430
N3619       N  0.48338072  0.15627516  0.86506125    -0.39390
N3620       N  0.61729697  0.22301611  0.91031647    -0.39390
N3621       N  0.49076288  0.18201567  0.93875837    -0.38830
N3622       N  0.60242647  0.21638058  0.83162871    -0.38830
C3623       C  0.55977702  0.18586227  0.66347554    -0.05500
C3624       C  0.54595759  0.17273448  0.64201383    -0.02620
C3625       C  0.55231281  0.17802735  0.61541751     0.02370
C3626       C  0.57039717  0.19832325  0.60943870    -0.05500
C3627       C  0.58428501  0.21161544  0.63026250    -0.02600
C3628       C  0.57918196  0.20514748  0.65730724     0.02370
C3629       C  0.52443185  0.15403801  0.64668246     0.37020
C3630       C  0.60380290  0.23181286  0.62375213     0.37010
C3631       C  0.59417485  0.21781162  0.67859999     0.35430
C3632       C  0.54027822  0.16228505  0.59397114     0.35430
N3633       N  0.60615019  0.22798219  0.69560876    -0.39390
N3634       N  0.53077627  0.14974579  0.57690361    -0.39390
N3635       N  0.61928983  0.24801221  0.61846455    -0.38830
N3636       N  0.50741453  0.13891669  0.64986710    -0.38830
N3637       N  0.66395128  0.71608709  0.02678060    -0.06280
N3638       N  0.68477999  0.70127850  0.03378818    -0.58400
N3639       N  0.63234646  0.70209530  0.47148393    -0.05960
N3640       N  0.63314412  0.67912636  0.45871251    -0.60530
N3641       N  0.65419641  0.71589815  0.46843912    -0.05560
N3642       N  0.67086114  0.70074514  0.45441196    -0.58380
N3643       N  0.64243862  0.70197764  0.03132058    -0.05240
N3644       N  0.64806183  0.67885094  0.04268895    -0.60880
C3645       C  0.67429701  0.67811020  0.04385259     0.95900
C3646       C  0.65698400  0.67778385  0.44812986     0.95670
N3647       N  0.55633221  0.72430912  0.48071659    -0.06470
N3648       N  0.54351617  0.72679718  0.45770567    -0.58980
N3649       N  0.58377513  0.70542211  0.04104031    -0.04590
N3650       N  0.58900516  0.69339896  0.06396462    -0.60230
N3651       N  0.56573835  0.72411128  0.04384450    -0.06500
N3652       N  0.55840512  0.72535847  0.06901208    -0.59250
N3653       N  0.57439720  0.70550793  0.47869384    -0.04230
N3654       N  0.57440761  0.69501770  0.45445369    -0.60320
Mn3655     Mn  0.60778710  0.70365741  0.00589098     1.18440
C3656       C  0.55507197  0.70836932  0.44158541     0.97980
C3657       C  0.57319920  0.70623161  0.08124526     0.98640
N3658       N  0.65669245  0.78491131  0.46844529    -0.06520
N3659       N  0.67418442  0.79727503  0.45304568    -0.62820
N3660       N  0.64640536  0.80083714  0.03157434    -0.05320
N3661       N  0.65424533  0.82394482  0.04170120    -0.63500
N3662       N  0.66666476  0.78484615  0.02654844    -0.06020
N3663       N  0.68876908  0.79818784  0.03214430    -0.63090
N3664       N  0.63652191  0.80126834  0.47199207    -0.04920
N3665       N  0.63903563  0.82343701  0.45815689    -0.63780
Mn3666     Mn  0.66163217  0.75036920  0.49729271     1.10660
C3667       C  0.66232711  0.82118283  0.44633602     0.99200
C3668       C  0.68046746  0.82248878  0.04177897     0.99280
N3669       N  0.56698534  0.78514777  0.04464023    -0.06030
N3670       N  0.55902113  0.78445072  0.06978735    -0.61400
N3671       N  0.57822992  0.80271230  0.47877052    -0.05350
N3672       N  0.57974088  0.81229972  0.45422455    -0.58130
N3673       N  0.55868692  0.78557851  0.48068427    -0.06660
N3674       N  0.54639676  0.78343207  0.45731683    -0.60970
N3675       N  0.58663318  0.80202932  0.04235645    -0.05650
N3676       N  0.59230625  0.81309290  0.06574673    -0.58160
Mn3677     Mn  0.56038167  0.75488603  0.01265187     1.20190
Mn3678     Mn  0.61142707  0.80196772  0.50657100     1.10090
Cl3679     Cl  0.61100519  0.75276501  0.00565786    -0.86130
C3680       C  0.57487605  0.80222282  0.08294774     0.96210
C3681       C  0.55982550  0.80017437  0.44102707     0.96000
N3682       N  0.94114853  0.72658581  0.03522482    -0.06280
N3683       N  0.95064291  0.73030576  0.05966388    -0.58400
N3684       N  0.92321872  0.70539576  0.47207768    -0.05960
N3685       N  0.91913943  0.69354952  0.44883820    -0.60530
N3686       N  0.94013578  0.72523558  0.46987285    -0.05560
N3687       N  0.94734582  0.72749250  0.44446589    -0.58380
N3688       N  0.92317205  0.70763133  0.03557264    -0.05240
N3689       N  0.92000721  0.69824580  0.06002493    -0.60880
C3690       C  0.93731952  0.71246462  0.07493533     0.95900
C3691       C  0.93424925  0.70721352  0.43165224     0.95670
N3692       N  0.84166000  0.71357288  0.47414996    -0.06470
N3693       N  0.82277876  0.69653017  0.46616453    -0.58980
N3694       N  0.86422406  0.70196706  0.03344946    -0.04590
N3695       N  0.86151652  0.67920776  0.04632375    -0.60230
N3696       N  0.84204621  0.71578926  0.03280390    -0.06500
N3697       N  0.82343752  0.70116003  0.04462010    -0.59250
N3698       N  0.86434722  0.70074163  0.47310005    -0.04230
N3699       N  0.86145948  0.67662232  0.46288191    -0.60320
Mn3700     Mn  0.89435818  0.70397531  0.00363453     1.18440
C3701       C  0.83573687  0.67336066  0.45894528     0.97980
C3702       C  0.83634996  0.67855333  0.05355578     0.98640
N3703       N  0.93924099  0.78643922  0.47021677    -0.06520
N3704       N  0.95087413  0.78612214  0.44667476    -0.62820
N3705       N  0.91783011  0.80460972  0.03293093    -0.05320
N3706       N  0.91439026  0.81597982  0.05656040    -0.63500
N3707       N  0.93787528  0.78793922  0.03363493    -0.06020
N3708       N  0.94828177  0.78780808  0.05792163    -0.63090
N3709       N  0.91945113  0.80329993  0.46985994    -0.04920
N3710       N  0.91739964  0.81485416  0.44626188    -0.63780
Mn3711     Mn  0.94128782  0.75637788  0.00219863     1.10660
C3712       C  0.93714896  0.80420582  0.43169635     0.99200
C3713       C  0.93369466  0.80560454  0.07224442     0.99280
N3714       N  0.83784716  0.78469852  0.03030336    -0.06030
N3715       N  0.81736128  0.79611779  0.04233164    -0.61400
N3716       N  0.85976805  0.79832679  0.46903082    -0.05350
N3717       N  0.85441617  0.82105935  0.45689517    -0.58130
N3718       N  0.83841693  0.78338982  0.47183430    -0.06660
N3719       N  0.81777717  0.79787549  0.46359210    -0.60970
N3720       N  0.85743382  0.80218306  0.02955918    -0.05650
N3721       N  0.85120757  0.82470709  0.04177193    -0.58160
Mn3722     Mn  0.83885467  0.74937146  0.00225833     1.20190
Mn3723     Mn  0.88889935  0.80229656  0.00039849     1.10090
Cl3724     Cl  0.89052982  0.75306717  0.00220154    -0.86130
C3725       C  0.82647278  0.82096891  0.04963625     0.96210
C3726       C  0.82837350  0.82132780  0.45424096     0.96000
N3727       N  0.72502379  0.53473420  0.08774591    -0.06280
N3728       N  0.71707950  0.54929596  0.06682778    -0.58400
N3729       N  0.78137799  0.55122919  0.11131903    -0.05960
N3730       N  0.79392923  0.57386412  0.10707629    -0.60530
N3731       N  0.78277397  0.53494451  0.09045276    -0.05560
N3732       N  0.79553686  0.54749322  0.07096844    -0.58380
N3733       N  0.72215462  0.54953518  0.10958319    -0.05240
N3734       N  0.71103554  0.57278452  0.10413718    -0.60880
C3735       C  0.70831145  0.57295333  0.07764409     0.95900
C3736       C  0.80274198  0.57154717  0.08217435     0.95670
N3737       N  0.78316568  0.53136983  0.18998623    -0.06470
N3738       N  0.80736379  0.53025573  0.19991868    -0.58980
N3739       N  0.71994032  0.54972663  0.17077290    -0.04590
N3740       N  0.69690495  0.56209133  0.16925661    -0.60230
N3741       N  0.72006096  0.53170782  0.18982353    -0.06500
N3742       N  0.69682640  0.53137892  0.20142151    -0.59250
N3743       N  0.78179705  0.55032200  0.17180024    -0.04230
N3744       N  0.80463222  0.56261877  0.16942103    -0.60320
Mn3745     Mn  0.75109785  0.55029696  0.14134171     1.18440
C3746       C  0.82055104  0.55035554  0.18734277     0.97980
C3747       C  0.68238145  0.55066436  0.18868016     0.98640
N3748       N  0.78349971  0.96545457  0.09112887    -0.06520
N3749       N  0.79552904  0.95089279  0.07232399    -0.62820
N3750       N  0.72337052  0.95047426  0.10874162    -0.05320
N3751       N  0.71444294  0.92640676  0.10245166    -0.63500
N3752       N  0.72613027  0.96551996  0.08715379    -0.06020
N3753       N  0.72044129  0.95055934  0.06575262    -0.63090
N3754       N  0.78261440  0.95084213  0.11306099    -0.04920
N3755       N  0.79501062  0.92798585  0.11027654    -0.63120
Mn3756     Mn  0.75449001  0.50021017  0.08799383     1.10660
C3757       C  0.80314779  0.92763834  0.08513207     0.99200
C3758       C  0.71316296  0.92620452  0.07581480     0.99280
N3759       N  0.71972256  0.97023567  0.18909131    -0.06030
N3760       N  0.69608513  0.97176328  0.19959404    -0.61400
N3761       N  0.78164709  0.95053258  0.17254573    -0.05350
N3762       N  0.80426914  0.93750210  0.17094651    -0.58130
N3763       N  0.78256851  0.96901061  0.19127713    -0.06660
N3764       N  0.80607940  0.96883112  0.20292340    -0.60970
N3765       N  0.71967640  0.95219069  0.16989512    -0.05650
N3766       N  0.69625690  0.94090284  0.16710058    -0.58160
Mn3767     Mn  0.75156594  0.00060948  0.19158623     1.20190
Mn3768     Mn  0.75150090  0.95113880  0.14150259     1.10090
Cl3769     Cl  0.75215897  0.00063285  0.13997767    -0.86130
C3770       C  0.68165232  0.95315981  0.18595316     0.96210
C3771       C  0.81930360  0.94872279  0.19024843     0.96000
N3772       N  0.71497722  0.53036739  0.31522970    -0.06280
N3773       N  0.69137981  0.53016453  0.30366980    -0.58400
N3774       N  0.77774059  0.55066418  0.33546322    -0.05960
N3775       N  0.80040871  0.56369085  0.33724837    -0.60530
N3776       N  0.77810374  0.53275782  0.31610599    -0.05560
N3777       N  0.80138073  0.53316659  0.30462647    -0.58380
N3778       N  0.71588353  0.54929154  0.33355968    -0.05240
N3779       N  0.69325208  0.56233810  0.33474494    -0.60880
C3780       C  0.67800320  0.55059397  0.31583699     0.95900
C3781       C  0.81516177  0.55286147  0.31761316     0.95670
N3782       N  0.77493060  0.53366675  0.41789127    -0.06470
N3783       N  0.78694212  0.54461714  0.43893509    -0.58980
N3784       N  0.71560812  0.54793385  0.39301997    -0.04590
N3785       N  0.70252856  0.57039626  0.39604910    -0.60230
N3786       N  0.71671358  0.53369961  0.41524410    -0.06500
N3787       N  0.70561861  0.54829582  0.43457712    -0.59250
N3788       N  0.77485784  0.55095428  0.39781624    -0.04230
N3789       N  0.78712343  0.57332969  0.40465249    -0.60320
Mn3790     Mn  0.74636189  0.54983415  0.36464450     1.18440
C3791       C  0.79470143  0.56920012  0.43004245     0.97980
C3792       C  0.69673316  0.57102785  0.42178023     0.98640
N3793       N  0.78071237  0.97094139  0.31526860    -0.06520
N3794       N  0.80409468  0.97262758  0.30392406    -0.62820
N3795       N  0.72017158  0.94808695  0.33428134    -0.05320
N3796       N  0.69849219  0.93365680  0.33677510    -0.63500
N3797       N  0.71736476  0.96696368  0.31613057    -0.06020
N3798       N  0.69315869  0.96575288  0.30619863    -0.63090
N3799       N  0.78131201  0.95243811  0.33394719    -0.04920
N3800       N  0.80462509  0.94083594  0.33547488    -0.63780
Mn3801     Mn  0.74752999  0.50023144  0.31400813     1.10660
C3802       C  0.81861866  0.95334551  0.31648385     0.99200
C3803       C  0.68179765  0.94437442  0.31874680     0.99280
N3804       N  0.71898019  0.96412869  0.41507640    -0.06030
N3805       N  0.70558409  0.95138620  0.43401418    -0.61400
N3806       N  0.78084642  0.95243364  0.39466329    -0.05350
N3807       N  0.79321683  0.92967685  0.39917485    -0.58130
N3808       N  0.77699442  0.96596075  0.41704985    -0.06660
N3809       N  0.78517344  0.95078467  0.43742507    -0.60970
N3810       N  0.72118753  0.94798026  0.39422623    -0.05650
N3811       N  0.70856123  0.92528704  0.39778988    -0.58160
Mn3812     Mn  0.74667296  0.49939573  0.41746934     1.20190
Mn3813     Mn  0.75105964  0.95029262  0.36395176     1.10090
Cl3814     Cl  0.74789424  0.49998189  0.36521258    -0.86130
C3815       C  0.69884575  0.92737787  0.42231845     0.96210
C3816       C  0.79533965  0.92822702  0.42566148     0.96000
N3817       N  0.53008009  0.67099738  0.22493272    -0.06280
N3818       N  0.54268560  0.68998842  0.21115668    -0.58400
N3819       N  0.97243432  0.65236354  0.20376078    -0.05960
N3820       N  0.96015639  0.65828170  0.18128702    -0.60530
N3821       N  0.97109847  0.67281716  0.22062617    -0.05560
N3822       N  0.95865126  0.69341196  0.20896646    -0.58380
N3823       N  0.53342821  0.64773087  0.21262999    -0.05240
N3824       N  0.55047250  0.64967753  0.19345715    -0.60880
C3825       C  0.55533438  0.67602735  0.19132164     0.95900
C3826       C  0.95118495  0.68365274  0.18458423     0.95670
N3827       N  0.96877830  0.56991710  0.22076941    -0.06470
N3828       N  0.94589884  0.55758703  0.21862316    -0.58980
N3829       N  0.53146788  0.58782859  0.20709705    -0.04590
N3830       N  0.55427435  0.58825060  0.19471126    -0.60230
N3831       N  0.53080062  0.56816780  0.22442871    -0.06500
N3832       N  0.55333432  0.55475056  0.22403550    -0.59250
N3833       N  0.97003763  0.58962091  0.20329984    -0.04230
N3834       N  0.94819949  0.59095038  0.18883999    -0.60320
Mn3835     Mn  0.50160123  0.61940071  0.20631956     1.18440
C3836       C  0.93330512  0.57057924  0.19836937     0.97980
C3837       C  0.56802465  0.56736115  0.20518653     0.98640
N3838       N  0.96605667  0.67074988  0.28768037    -0.06520
N3839       N  0.95208480  0.68989477  0.30011443    -0.62820
N3840       N  0.52476802  0.64892109  0.30689090    -0.05320
N3841       N  0.53547112  0.65336582  0.33038680    -0.63500
N3842       N  0.52447498  0.67116190  0.29241135    -0.06020
N3843       N  0.53351872  0.69157801  0.30727928    -0.63090
N3844       N  0.96453419  0.64810463  0.30143332    -0.04920
N3845       N  0.94850618  0.65081761  0.32142121    -0.63780
Mn3846     Mn  0.99789372  0.67280101  0.25631512     1.10660
C3847       C  0.94073342  0.67672218  0.32110727     0.99200
C3848       C  0.54069906  0.67988172  0.33087696     0.99280
N3849       N  0.52801227  0.56830890  0.28606426    -0.06030
N3850       N  0.55157279  0.55705921  0.28644343    -0.61400
N3851       N  0.96495087  0.58583026  0.30110339    -0.05350
N3852       N  0.94248993  0.58492252  0.31411446    -0.58130
N3853       N  0.96566681  0.56704367  0.28265156    -0.06660
N3854       N  0.94347110  0.55305871  0.28265945    -0.60970
N3855       N  0.52684177  0.58735989  0.30432766    -0.05650
N3856       N  0.54947257  0.58944411  0.31741191    -0.58160
Mn3857     Mn  0.49824073  0.56691723  0.25350566     1.20190
Mn3858     Mn  0.49522062  0.61730349  0.30360750     1.10090
Cl3859     Cl  0.49795467  0.61925487  0.25495532    -0.86130
C3860       C  0.56472751  0.57022018  0.30624736     0.96210
C3861       C  0.92915877  0.56414560  0.30272404     0.96000
N3862       N  0.53243025  0.93985814  0.22563485    -0.06280
N3863       N  0.55503758  0.95314426  0.22528616    -0.58400
N3864       N  0.97080242  0.92053962  0.20480122    -0.05960
N3865       N  0.94849158  0.91915516  0.19108834    -0.60530
N3866       N  0.96943727  0.93899979  0.22365632    -0.05560
N3867       N  0.94569751  0.95011253  0.22334240    -0.58380
N3868       N  0.53237135  0.92110406  0.20710750    -0.05240
N3869       N  0.55465926  0.92122598  0.19382925    -0.60880
C3870       C  0.56873829  0.94148104  0.20506587     0.95900
C3871       C  0.93306931  0.93812720  0.20238211     0.95670
N3872       N  0.97239198  0.83694901  0.21904623    -0.06470
N3873       N  0.95817849  0.81768412  0.20711636    -0.58980
N3874       N  0.53229884  0.85929367  0.20704173    -0.04590
N3875       N  0.54920110  0.85627654  0.18770621    -0.60230
N3876       N  0.53240187  0.83816438  0.22308071    -0.06500
N3877       N  0.54918371  0.81984837  0.21372081    -0.59250
N3878       N  0.97258064  0.85849662  0.20358256    -0.04230
N3879       N  0.95813814  0.85479742  0.18206891    -0.60320
Mn3880     Mn  0.00199141  0.89005128  0.20534233     1.18440
C3881       C  0.94890615  0.82956807  0.18424958     0.97980
C3882       C  0.55996376  0.83189021  0.19184910     0.98640
N3883       N  0.96834791  0.93890712  0.28538567    -0.06520
N3884       N  0.94547177  0.95179083  0.28531664    -0.62820
N3885       N  0.52938253  0.91824453  0.30613753    -0.05320
N3886       N  0.55170296  0.91509026  0.31953336    -0.63500
N3887       N  0.53142119  0.93723758  0.28802219    -0.06020
N3888       N  0.55561841  0.94712389  0.28877214    -0.63090
N3889       N  0.96795290  0.91920506  0.30283569    -0.04920
N3890       N  0.94516669  0.91828116  0.31509002    -0.63780
Mn3891     Mn  0.00050533  0.94033816  0.25574773     1.10660
C3892       C  0.93130692  0.93879749  0.30419260     0.99200
C3893       C  0.56794334  0.93353129  0.30893676     0.99280
N3894       N  0.52787565  0.83541064  0.29081939    -0.06030
N3895       N  0.53683343  0.81500081  0.30582028    -0.61400
N3896       N  0.96811603  0.85683098  0.30163554    -0.05350
N3897       N  0.95361348  0.85156574  0.32246154    -0.58130
N3898       N  0.96974546  0.83545454  0.28591088    -0.06660
N3899       N  0.95752219  0.81472929  0.29728404    -0.60970
N3900       N  0.52866271  0.85767426  0.30531094    -0.05650
N3901       N  0.53997807  0.85345769  0.32850070    -0.58160
Mn3902     Mn  0.00072177  0.83516510  0.25444399     1.20190
Mn3903     Mn  0.99831817  0.88829984  0.30396693     1.10090
Cl3904     Cl  0.00034659  0.88827457  0.25484611    -0.86130
C3905       C  0.54470818  0.82692206  0.32928008     0.96210
C3906       C  0.94701319  0.82545933  0.31989463     0.96000
C3907       C  0.84749417  0.94959600  0.31374029    -0.05500
C3908       C  0.85783543  0.92382519  0.30791625    -0.02620
C3909       C  0.88522279  0.92020359  0.30557494     0.02370
C3910       C  0.90253118  0.94246578  0.30833554    -0.05500
C3911       C  0.89237245  0.96752318  0.31691134    -0.02600
C3912       C  0.86500591  0.97067756  0.32067151     0.02370
C3913       C  0.84040877  0.90068379  0.30586887     0.37020
C3914       C  0.91040304  0.98882387  0.32475520     0.37010
C3915       C  0.85534186  0.99295714  0.33655816     0.35430
C3916       C  0.89551324  0.89333116  0.30100387     0.35430
N3917       N  0.84744956  0.50944698  0.35079880    -0.39390
N3918       N  0.90380581  0.87187020  0.29735447    -0.39390
N3919       N  0.92521842  0.50531756  0.33136215    -0.38830
N3920       N  0.82654459  0.88217922  0.30454654    -0.38830
C3921       C  0.65286393  0.93836548  0.31865332    -0.05500
C3922       C  0.64165632  0.92009406  0.30007886    -0.02620
C3923       C  0.61393817  0.91784270  0.29749809     0.02370
C3924       C  0.59713722  0.93338958  0.31393816    -0.05500
C3925       C  0.60845328  0.94862103  0.33498903    -0.02600
C3926       C  0.63614312  0.95153161  0.33704161     0.02370
C3927       C  0.65865255  0.90349689  0.28374818     0.37020
C3928       C  0.59163837  0.96120103  0.35462292     0.37010
C3929       C  0.64744913  0.96922190  0.35723342     0.35430
C3930       C  0.60264015  0.89995237  0.27748702     0.35430
N3931       N  0.65656249  0.98336565  0.37325853    -0.39390
N3932       N  0.59357821  0.88574818  0.26148457    -0.39390
N3933       N  0.57823454  0.97114554  0.37040310    -0.38830
N3934       N  0.67224847  0.89017536  0.27078353    -0.38830
C3935       C  0.84439274  0.55759773  0.31399225    -0.05500
C3936       C  0.85652222  0.54843763  0.29042774    -0.02620
C3937       C  0.88409958  0.54685707  0.28839229     0.02370
C3938       C  0.90047923  0.55856018  0.30808669    -0.05500
C3939       C  0.88874474  0.56679416  0.33228115    -0.02600
C3940       C  0.86094763  0.56732124  0.33492120     0.02370
C3941       C  0.84022363  0.54219321  0.26764682     0.37020
C3942       C  0.90531992  0.57123452  0.35559857     0.37010
C3943       C  0.84978821  0.57779001  0.35932432     0.35430
C3944       C  0.89535625  0.52896697  0.26882541     0.35430
N3945       N  0.84104548  0.58666688  0.37869105    -0.39390
N3946       N  0.90487035  0.51317491  0.25489628    -0.39390
N3947       N  0.91851429  0.57447813  0.37427986    -0.38830
N3948       N  0.82527809  0.53827115  0.25064448    -0.38830
C3949       C  0.59336814  0.56598575  0.31210995    -0.05500
C3950       C  0.60339062  0.53957156  0.31135735    -0.02620
C3951       C  0.63063123  0.53502878  0.30954100     0.02370
C3952       C  0.64886803  0.55627184  0.31329442    -0.05500
C3953       C  0.63871034  0.58276899  0.31713201    -0.02600
C3954       C  0.61118982  0.58772564  0.31560206     0.02370
C3955       C  0.58526254  0.51699934  0.31252947     0.37020
C3956       C  0.65652389  0.60530049  0.32125160     0.37010
C3957       C  0.60150982  0.61526235  0.31700972     0.35430
C3958       C  0.63919546  0.50893243  0.30089406     0.35430
N3959       N  0.59407172  0.63735910  0.31816754    -0.39390
N3960       N  0.64523166  0.98845107  0.29187490    -0.39390
N3961       N  0.67069133  0.62330853  0.32462797    -0.38830
N3962       N  0.56987631  0.49984354  0.31321625    -0.38830
C3963       C  0.84837369  0.94435851  0.19209787    -0.05500
C3964       C  0.86525570  0.95549777  0.17266909    -0.02620
C3965       C  0.89293009  0.95294258  0.17540411     0.02370
C3966       C  0.90393213  0.93947943  0.19769167    -0.05500
C3967       C  0.88698114  0.92558528  0.21500545    -0.02600
C3968       C  0.85939101  0.92870761  0.21285319     0.02370
C3969       C  0.85414080  0.97001112  0.15011475     0.37020
C3970       C  0.89821483  0.90518279  0.23221666     0.37010
C3971       C  0.84217687  0.91518174  0.23133600     0.35430
C3972       C  0.91001973  0.96345517  0.15493244     0.35430
N3973       N  0.82791886  0.90447179  0.24569120    -0.39390
N3974       N  0.92367563  0.97177148  0.13854761    -0.39390
N3975       N  0.90844666  0.88810266  0.24408844    -0.38830
N3976       N  0.84520868  0.98152112  0.13209893    -0.38830
C3977       C  0.65276398  0.94900301  0.18996503    -0.05500
C3978       C  0.64254317  0.95248775  0.21567176    -0.02620
C3979       C  0.61528726  0.95267916  0.21994634     0.02370
C3980       C  0.59740716  0.94606009  0.19920964    -0.05500
C3981       C  0.60768673  0.94126141  0.17335549    -0.02600
C3982       C  0.63513086  0.94320610  0.16865833     0.02370
C3983       C  0.66056245  0.95423578  0.23806644     0.37020
C3984       C  0.59007036  0.93510860  0.15123797     0.37010
C3985       C  0.64494067  0.93949651  0.14182355     0.35430
C3986       C  0.60613848  0.96048809  0.24581488     0.35430
N3987       N  0.65261367  0.93645879  0.12035016    -0.39390
N3988       N  0.59950526  0.96783410  0.26651154    -0.39390
N3989       N  0.57611172  0.93008167  0.13354386    -0.38830
N3990       N  0.67628310  0.95524816  0.25478918    -0.38830
C3991       C  0.90517158  0.56515098  0.19088889    -0.05500
C3992       C  0.88784233  0.58565264  0.18197957    -0.02620
C3993       C  0.86039361  0.58077119  0.18048434     0.02370
C3994       C  0.84974560  0.55562913  0.18908373    -0.05500
C3995       C  0.86760800  0.53520509  0.19741955    -0.02600
C3996       C  0.89489387  0.53932041  0.19568655     0.02370
C3997       C  0.89800912  0.61171767  0.17398463     0.37020
C3998       C  0.85885572  0.51120676  0.21097797     0.37010
C3999       C  0.91292276  0.51682537  0.19818187     0.35430
C4000       C  0.84330415  0.60242182  0.17126975     0.35430
N4001       N  0.92861768  0.50005214  0.20025447    -0.39390
N4002       N  0.82988415  0.61978402  0.16375569    -0.39390
N4003       N  0.85303158  0.49295472  0.22400594    -0.38830
N4004       N  0.90599218  0.63245543  0.16719910    -0.38830
C4005       C  0.65311637  0.55558142  0.19278695    -0.05500
C4006       C  0.63786842  0.57172175  0.17492164    -0.02620
C4007       C  0.61032026  0.57505019  0.17847445     0.02370
C4008       C  0.59709865  0.56228832  0.19992966    -0.05500
C4009       C  0.61234194  0.54587952  0.21729109    -0.02600
C4010       C  0.63985386  0.54319983  0.21427930     0.02370
C4011       C  0.65014799  0.58533642  0.15265594     0.37020
C4012       C  0.59965148  0.53150234  0.23848987     0.37010
C4013       C  0.65473626  0.52837323  0.23412991     0.35430
C4014       C  0.59575468  0.59140908  0.15936592     0.35430
N4015       N  0.66787705  0.51701428  0.24932734    -0.39390
N4016       N  0.58435376  0.60453224  0.14403839    -0.39390
N4017       N  0.58811611  0.52036743  0.25480672    -0.38830
N4018       N  0.65962615  0.59640793  0.13484475    -0.38830
C4019       C  0.81187040  0.84425129  0.06077300    -0.05500
C4020       C  0.82066323  0.85338381  0.08576358    -0.02620
C4021       C  0.82153795  0.88123838  0.09151368     0.02370
C4022       C  0.80999474  0.90047178  0.07375422    -0.05500
C4023       C  0.79876032  0.89091514  0.04958059    -0.02600
C4024       C  0.79982836  0.86292280  0.04314871     0.02370
C4025       C  0.82949709  0.83372655  0.10539354     0.37020
C4026       C  0.78601833  0.90970294  0.03150225     0.37010
C4027       C  0.78779775  0.85299248  0.01879850     0.35430
C4028       C  0.83466188  0.88995705  0.11595375     0.35430
N4029       N  0.77765417  0.84496649  0.49962267    -0.39390
N4030       N  0.84508436  0.89682258  0.13544669    -0.39390
N4031       N  0.77607226  0.92509342  0.01726982    -0.38830
N4032       N  0.83629539  0.81795919  0.12104004    -0.38830
C4033       C  0.81355638  0.59592470  0.06914680    -0.05500
C4034       C  0.79695913  0.61264636  0.05349992    -0.02620
C4035       C  0.80242870  0.64068368  0.05068734     0.02370
C4036       C  0.82533623  0.65197194  0.06247431    -0.05500
C4037       C  0.84191311  0.63482364  0.07802042    -0.02600
C4038       C  0.83621343  0.60715920  0.08094856     0.02370
C4039       C  0.77405639  0.60092126  0.04061109     0.37020
C4040       C  0.86504205  0.64540042  0.09161512     0.37010
C4041       C  0.85349211  0.59006533  0.09692994     0.35430
C4042       C  0.78407374  0.65785894  0.03640099     0.35430
N4043       N  0.86721435  0.57641926  0.10961790    -0.39390
N4044       N  0.76902943  0.67167109  0.02559012    -0.39390
N4045       N  0.88377600  0.65286937  0.10259372    -0.38830
N4046       N  0.75599416  0.59129950  0.03012063    -0.38830
C4047       C  0.79880956  0.90119960  0.43821806    -0.05500
C4048       C  0.78626621  0.87812822  0.42657995    -0.02620
C4049       C  0.79425423  0.85170895  0.43352707     0.02370
C4050       C  0.81490165  0.84801322  0.45185296    -0.05500
C4051       C  0.82547930  0.87105484  0.46551645    -0.02600
C4052       C  0.81729227  0.89744668  0.45874923     0.02370
C4053       C  0.76570460  0.88125390  0.40654529     0.37020
C4054       C  0.84564934  0.86809513  0.48598549     0.37010
C4055       C  0.82938022  0.92078154  0.47148913     0.35430
C4056       C  0.78255527  0.82843889  0.42034580     0.35430
N4057       N  0.83906742  0.93934975  0.48166034    -0.39390
N4058       N  0.77320825  0.80992172  0.40976571    -0.39390
N4059       N  0.86207410  0.86638555  0.50202153    -0.38830
N4060       N  0.74954542  0.88328467  0.39027093    -0.38830
C4061       C  0.82473501  0.64507272  0.45523928    -0.05500
C4062       C  0.84224393  0.62246391  0.45162809    -0.02620
C4063       C  0.83240982  0.59643543  0.44596096     0.02370
C4064       C  0.80541567  0.59167678  0.44632012    -0.05500
C4065       C  0.78846203  0.61233133  0.45507100    -0.02600
C4066       C  0.79756807  0.63929754  0.45767279     0.02370
C4067       C  0.87052264  0.62478448  0.45457673     0.37020
C4068       C  0.76216209  0.60514762  0.46314008     0.37010
C4069       C  0.77875583  0.66070674  0.46243037     0.35430
C4070       C  0.85012358  0.57424507  0.43975362     0.35430
N4071       N  0.76357592  0.67776700  0.46595137    -0.39390
N4072       N  0.86425808  0.55660754  0.43481029    -0.39390
N4073       N  0.74153026  0.59901951  0.47049401    -0.38830
N4074       N  0.89303151  0.62609750  0.45771837    -0.38830
C4075       C  0.93963823  0.81074798  0.34458462    -0.05500
C4076       C  0.95864004  0.79504164  0.35822703    -0.02620
C4077       C  0.95789071  0.79244680  0.38643729     0.02370
C4078       C  0.93895297  0.80706996  0.40164385    -0.05500
C4079       C  0.91932054  0.82184456  0.38729506    -0.02600
C4080       C  0.91860735  0.82145759  0.35917807     0.02370
C4081       C  0.97951481  0.78214087  0.34330250     0.37020
C4082       C  0.89962320  0.83802748  0.40077969     0.37010
C4083       C  0.89562489  0.83164602  0.34512005     0.35430
C4084       C  0.97671318  0.77452947  0.39926648     0.35430
N4085       N  0.87649322  0.83892965  0.33472524    -0.39390
N4086       N  0.99177846  0.76001797  0.40914232    -0.39390
N4087       N  0.88390938  0.85129605  0.41107336    -0.38830
N4088       N  0.99609902  0.77161257  0.33150225    -0.38830
C4089       C  0.93545732  0.80921427  0.10241412    -0.05500
C4090       C  0.95530415  0.79585590  0.11760045    -0.02620
C4091       C  0.95660369  0.79848998  0.14574609     0.02370
C4092       C  0.93934571  0.81590507  0.15933497    -0.05500
C4093       C  0.91887493  0.82841502  0.14466688    -0.02600
C4094       C  0.91719159  0.82564290  0.11650876     0.02370
C4095       C  0.97647746  0.78221890  0.10405847     0.37020
C4096       C  0.90028869  0.84553862  0.15866552     0.37010
C4097       C  0.89840623  0.84229268  0.10215110     0.35430
C4098       C  0.97726596  0.78516293  0.16070154     0.35430
N4099       N  0.88401621  0.85616584  0.09053296    -0.39390
N4100       N  0.99345959  0.77481336  0.17334825    -0.39390
N4101       N  0.88547841  0.85907538  0.16994097    -0.38830
N4102       N  0.99322872  0.77239837  0.09199672    -0.38830
C4103       C  0.93050260  0.68817909  0.34695645    -0.05500
C4104       C  0.93133046  0.71552429  0.35491357    -0.02620
C4105       C  0.92930313  0.72197576  0.38267874     0.02370
C4106       C  0.93341199  0.70151915  0.40217270    -0.05500
C4107       C  0.93041624  0.67452454  0.39358593    -0.02600
C4108       C  0.92434019  0.66916067  0.36682092     0.02370
C4109       C  0.92995301  0.73625577  0.33472327     0.37020
C4110       C  0.93465556  0.65197354  0.41150175     0.37010
C4111       C  0.90868669  0.64582900  0.35986193     0.35430
C4112       C  0.91491782  0.74574988  0.39057482     0.35430
N4113       N  0.89472021  0.62843820  0.35379550    -0.39390
N4114       N  0.90120340  0.76319613  0.39703357    -0.39390
N4115       N  0.93898983  0.63381269  0.42537875    -0.38830
N4116       N  0.92839954  0.75241770  0.31811990    -0.38830
C4117       C  0.93975455  0.71041689  0.10469816    -0.05500
C4118       C  0.96481234  0.71038052  0.11675055    -0.02620
C4119       C  0.96749855  0.70750658  0.14459362     0.02370
C4120       C  0.94581536  0.70032145  0.16031380    -0.05500
C4121       C  0.92047845  0.70170757  0.14873448    -0.02600
C4122       C  0.91739593  0.70822629  0.12127099     0.02370
C4123       C  0.98774726  0.71065856  0.09999267     0.37020
C4124       C  0.89773707  0.69634627  0.16503048     0.37010
C4125       C  0.89138883  0.71320471  0.11031399     0.35430
C4126       C  0.99244534  0.71241957  0.15744695     0.35430
N4127       N  0.87060309  0.71742384  0.10169916    -0.39390
N4128       N  0.51183720  0.71759945  0.16840447    -0.39390
N4129       N  0.87955057  0.69207379  0.17805318    -0.38830
N4130       N  0.50500197  0.71058659  0.08517000    -0.38830
C4131       C  0.68752759  0.90283369  0.43450017    -0.05500
C4132       C  0.70431423  0.88445182  0.44796314    -0.02620
C4133       C  0.69807014  0.85650502  0.44908460     0.02370
C4134       C  0.67470402  0.84672978  0.43697103    -0.05500
C4135       C  0.65819831  0.86530213  0.42323727    -0.02600
C4136       C  0.66412020  0.89309568  0.42289526     0.02370
C4137       C  0.72789938  0.89445586  0.46091280     0.37020
C4138       C  0.63458264  0.85594941  0.40960557     0.37010
C4139       C  0.64590652  0.91198569  0.41051621     0.35430
C4140       C  0.71524464  0.83802213  0.46334054     0.35430
N4141       N  0.63105400  0.92695869  0.40104877    -0.39390
N4142       N  0.72880554  0.82296114  0.47453608    -0.39390
N4143       N  0.61566031  0.84903410  0.39859213    -0.38830
N4144       N  0.74657728  0.90248458  0.47156484    -0.38830
C4145       C  0.68909516  0.59751835  0.43337991    -0.05500
C4146       C  0.70377659  0.62109350  0.42655456    -0.02620
C4147       C  0.69377532  0.64729383  0.43153577     0.02370
C4148       C  0.66775162  0.65052128  0.44026067    -0.05500
C4149       C  0.65199799  0.62667152  0.44333560    -0.02600
C4150       C  0.66344415  0.60070190  0.44258278     0.02370
C4151       C  0.72848943  0.61876922  0.41245423     0.37020
C4152       C  0.62352352  0.62799833  0.44503262     0.37010
C4153       C  0.64797489  0.57693289  0.44893004     0.35430
C4154       C  0.70952609  0.67081580  0.42518593     0.35430
N4155       N  0.63572836  0.55798946  0.45412877    -0.39390
N4156       N  0.72208884  0.68950096  0.41984676    -0.39390
N4157       N  0.60082532  0.62877316  0.44625381    -0.38830
N4158       N  0.74791950  0.61751141  0.40070574    -0.38830
C4159       C  0.69611842  0.84783050  0.04383602    -0.05500
C4160       C  0.68720626  0.87140924  0.03017664    -0.02620
C4161       C  0.69554812  0.89735230  0.03839474     0.02370
C4162       C  0.71177126  0.90001349  0.06102040    -0.05500
C4163       C  0.72365124  0.87637722  0.07211371    -0.02600
C4164       C  0.71591945  0.85038277  0.06334033     0.02370
C4165       C  0.66744992  0.86953729  0.00924174     0.37020
C4166       C  0.74289929  0.87845264  0.09356935     0.37010
C4167       C  0.72643471  0.82638926  0.07620259     0.35430
C4168       C  0.68565967  0.92129401  0.02493452     0.35430
N4169       N  0.73482764  0.80728718  0.08653170    -0.39390
N4170       N  0.67785094  0.94032934  0.51403500    -0.39390
N4171       N  0.75796311  0.87966565  0.11097475    -0.38830
N4172       N  0.65115829  0.86896702  0.49300758    -0.38830
C4173       C  0.70458585  0.59925207  0.06359591    -0.05500
C4174       C  0.71731945  0.62297969  0.07358465    -0.02620
C4175       C  0.70918045  0.64895953  0.06519908     0.02370
C4176       C  0.68796594  0.65158454  0.04730105    -0.05500
C4177       C  0.67691955  0.62779679  0.03556078    -0.02600
C4178       C  0.68559940  0.60183750  0.04332448     0.02370
C4179       C  0.73827093  0.62101568  0.09335464     0.37020
C4180       C  0.65491384  0.62966934  0.01711322     0.37010
C4181       C  0.67340317  0.57782395  0.03203477     0.35430
C4182       C  0.72107698  0.67295991  0.07682848     0.35430
N4183       N  0.66365682  0.55871292  0.02297827    -0.39390
N4184       N  0.73055447  0.69206514  0.08619101    -0.39390
N4185       N  0.63661931  0.63111169  0.00334288    -0.38830
N4186       N  0.75480488  0.61987820  0.10932984    -0.38830
C4187       C  0.55490674  0.80310004  0.41174856    -0.05500
C4188       C  0.57429725  0.79640399  0.39263290    -0.02620
C4189       C  0.56962845  0.80086534  0.36494923     0.02370
C4190       C  0.54641022  0.81394771  0.35630887    -0.05500
C4191       C  0.52753865  0.82141799  0.37592155    -0.02600
C4192       C  0.53138929  0.81510588  0.40309716     0.02370
C4193       C  0.59997226  0.78732017  0.40154442     0.37020
C4194       C  0.50558033  0.83889969  0.36927739     0.37010
C4195       C  0.51234282  0.82391331  0.42276723     0.35430
C4196       C  0.58975817  0.79440170  0.34566332     0.35430
N4197       N  0.99733301  0.83103400  0.43851076    -0.39390
N4198       N  0.60584351  0.78931072  0.33025704    -0.39390
N4199       N  0.98853034  0.85388880  0.36539390    -0.38830
N4200       N  0.62085821  0.78109043  0.40850408    -0.38830
C4201       C  0.57556080  0.80691553  0.11297589    -0.05500
C4202       C  0.56300115  0.78902806  0.13116714    -0.02620
C4203       C  0.56347174  0.79402862  0.15901195     0.02370
C4204       C  0.57335673  0.81846486  0.16895365    -0.05500
C4205       C  0.58861256  0.83465008  0.15189564    -0.02600
C4206       C  0.58977293  0.82910217  0.12418371     0.02370
C4207       C  0.54825612  0.76595830  0.12211105     0.37020
C4208       C  0.60268119  0.85759723  0.16310251     0.37010
C4209       C  0.60441216  0.84755283  0.10747431     0.35430
C4210       C  0.55352477  0.77427425  0.17767939     0.35430
N4211       N  0.61615686  0.86244143  0.09438451    -0.39390
N4212       N  0.54625148  0.75871476  0.19314796    -0.39390
N4213       N  0.61406757  0.87567977  0.17223225    -0.38830
N4214       N  0.53577420  0.74724020  0.11672878    -0.38830
C4215       C  0.54220992  0.69372399  0.35738288    -0.05500
C4216       C  0.56570349  0.70609702  0.36606248    -0.02620
C4217       C  0.57015044  0.71077234  0.39366652     0.02370
C4218       C  0.55004318  0.70575277  0.41242723    -0.05500
C4219       C  0.52591344  0.69527321  0.40355776    -0.02600
C4220       C  0.52241668  0.68819369  0.37651984     0.02370
C4221       C  0.58615011  0.71175801  0.34692863     0.37020
C4222       C  0.50610191  0.68813095  0.42299466     0.37010
C4223       C  0.50016606  0.67133021  0.36961126     0.35430
C4224       C  0.59621784  0.71813360  0.40293711     0.35430
N4225       N  0.48338072  0.65627517  0.36506124    -0.39390
N4226       N  0.61729699  0.72301610  0.41031647    -0.39390
N4227       N  0.49076289  0.68201569  0.43875836    -0.38830
N4228       N  0.60242649  0.71638055  0.33162872    -0.38830
C4229       C  0.55977702  0.68586227  0.16347554    -0.05500
C4230       C  0.54595759  0.67273449  0.14201383    -0.02620
C4231       C  0.55231281  0.67802735  0.11541751     0.02370
C4232       C  0.57039718  0.69832325  0.10943870    -0.05500
C4233       C  0.58428502  0.71161543  0.13026250    -0.02600
C4234       C  0.57918197  0.70514748  0.15730724     0.02370
C4235       C  0.52443184  0.65403802  0.14668247     0.37020
C4236       C  0.60380291  0.73181285  0.12375214     0.37010
C4237       C  0.59417486  0.71781161  0.17859999     0.35430
C4238       C  0.54027823  0.66228505  0.09397115     0.35430
N4239       N  0.60615020  0.72798219  0.19560876    -0.39390
N4240       N  0.53077628  0.64974579  0.07690362    -0.39390
N4241       N  0.61928985  0.74801220  0.11846456    -0.38830
N4242       N  0.50741452  0.63891671  0.14986710    -0.38830
N4243       N  0.66395128  0.71608710  0.52678060    -0.06280
N4244       N  0.68477998  0.70127850  0.53378819    -0.58400
N4245       N  0.63234647  0.70209529  0.97148393    -0.05960
N4246       N  0.63314412  0.67912636  0.95871251    -0.60530
N4247       N  0.65419642  0.71589814  0.96843911    -0.05560
N4248       N  0.67086115  0.70074513  0.95441196    -0.58380
N4249       N  0.64243861  0.70197765  0.53132059    -0.05240
N4250       N  0.64806183  0.67885095  0.54268895    -0.60880
C4251       C  0.67429701  0.67811020  0.54385259     0.95900
C4252       C  0.65698401  0.67778384  0.94812986     0.95670
N4253       N  0.55633222  0.72430912  0.98071659    -0.06470
N4254       N  0.54351618  0.72679718  0.95770567    -0.58980
N4255       N  0.58377513  0.70542212  0.54104031    -0.04590
N4256       N  0.58900516  0.69339896  0.56396463    -0.60230
N4257       N  0.56573834  0.72411128  0.54384450    -0.06500
N4258       N  0.55840511  0.72535847  0.56901208    -0.59250
N4259       N  0.57439721  0.70550793  0.97869384    -0.04230
N4260       N  0.57440761  0.69501770  0.95445368    -0.60320
Mn4261     Mn  0.60778710  0.70365741  0.50589098     1.18440
C4262       C  0.55507198  0.70836932  0.94158541     0.97980
C4263       C  0.57319920  0.70623161  0.58124527     0.98640
N4264       N  0.65669245  0.78491130  0.96844529    -0.06520
N4265       N  0.67418443  0.79727502  0.95304567    -0.62820
N4266       N  0.64640535  0.80083714  0.53157434    -0.05320
N4267       N  0.65424532  0.82394483  0.54170120    -0.63500
N4268       N  0.66666475  0.78484616  0.52654844    -0.06020
N4269       N  0.68876907  0.79818785  0.53214430    -0.63090
N4270       N  0.63652192  0.80126833  0.97199207    -0.04920
N4271       N  0.63903564  0.82343701  0.95815689    -0.63780
Mn4272     Mn  0.66163218  0.75036919  0.99729271     1.10660
C4273       C  0.66232712  0.82118282  0.94633601     0.99200
C4274       C  0.68046745  0.82248879  0.54177897     0.99280
N4275       N  0.56698533  0.78514777  0.54464023    -0.06030
N4276       N  0.55902112  0.78445072  0.56978735    -0.61400
N4277       N  0.57822993  0.80271230  0.97877052    -0.05350
N4278       N  0.57974089  0.81229971  0.95422454    -0.58130
N4279       N  0.55868693  0.78557851  0.98068427    -0.06660
N4280       N  0.54639677  0.78343207  0.95731683    -0.60970
N4281       N  0.58663317  0.80202932  0.54235645    -0.05650
N4282       N  0.59230624  0.81309290  0.56574673    -0.58160
Mn4283     Mn  0.56038167  0.75488603  0.51265187     1.20190
Mn4284     Mn  0.61142708  0.80196772  0.00657100     1.10090
Cl4285     Cl  0.61100519  0.75276501  0.50565786    -0.86130
C4286       C  0.57487604  0.80222282  0.58294774     0.96210
C4287       C  0.55982551  0.80017437  0.94102707     0.96000
N4288       N  0.94114852  0.72658579  0.53522481    -0.06280
N4289       N  0.95064290  0.73030574  0.55966387    -0.58400
N4290       N  0.92321873  0.70539577  0.97207770    -0.05960
N4291       N  0.91913945  0.69354952  0.94883822    -0.60530
N4292       N  0.94013580  0.72523558  0.96987287    -0.05560
N4293       N  0.94734584  0.72749251  0.94446591    -0.58380
N4294       N  0.92317204  0.70763131  0.53557263    -0.05240
N4295       N  0.92000720  0.69824578  0.56002492    -0.60880
C4296       C  0.93731951  0.71246460  0.57493531     0.95900
C4297       C  0.93424927  0.70721353  0.93165226     0.95670
N4298       N  0.84166002  0.71357287  0.97414995    -0.06470
N4299       N  0.82277878  0.69653016  0.96616451    -0.58980
N4300       N  0.86422405  0.70196706  0.53344945    -0.04590
N4301       N  0.86151651  0.67920776  0.54632373    -0.60230
N4302       N  0.84204620  0.71578927  0.53280389    -0.06500
N4303       N  0.82343751  0.70116004  0.54462010    -0.59250
N4304       N  0.86434723  0.70074161  0.97310006    -0.04230
N4305       N  0.86145950  0.67662230  0.96288193    -0.60320
Mn4306     Mn  0.89435817  0.70397531  0.50363451     1.18440
C4307       C  0.83573689  0.67336065  0.95894527     0.97980
C4308       C  0.83634995  0.67855333  0.55355577     0.98640
N4309       N  0.93924099  0.78643922  0.97021677    -0.06520
N4310       N  0.95087413  0.78612214  0.94667476    -0.62820
N4311       N  0.91783011  0.80460971  0.53293093    -0.05320
N4312       N  0.91439026  0.81597981  0.55656040    -0.63500
N4313       N  0.93787528  0.78793920  0.53363493    -0.06020
N4314       N  0.94828177  0.78780806  0.55792163    -0.63090
N4315       N  0.91945113  0.80329993  0.96985994    -0.04920
N4316       N  0.91739963  0.81485416  0.94626188    -0.63780
Mn4317     Mn  0.94128782  0.75637787  0.50219862     1.10660
C4318       C  0.93714895  0.80420582  0.93169635     0.99200
C4319       C  0.93369466  0.80560453  0.57224442     0.99280
N4320       N  0.83784716  0.78469853  0.53030336    -0.06030
N4321       N  0.81736128  0.79611780  0.54233165    -0.61400
N4322       N  0.85976805  0.79832678  0.96903082    -0.05350
N4323       N  0.85441617  0.82105934  0.95689517    -0.58130
N4324       N  0.83841693  0.78338981  0.97183430    -0.06660
N4325       N  0.81777717  0.79787548  0.96359209    -0.60970
N4326       N  0.85743382  0.80218307  0.52955918    -0.05650
N4327       N  0.85120757  0.82470710  0.54177193    -0.58160
Mn4328     Mn  0.83885466  0.74937146  0.50225833     1.20190
Mn4329     Mn  0.88889935  0.80229656  0.50039849     1.10090
Cl4330     Cl  0.89052982  0.75306717  0.50220154    -0.86130
C4331       C  0.82647279  0.82096892  0.54963625     0.96210
C4332       C  0.82837350  0.82132779  0.95424096     0.96000
N4333       N  0.72502378  0.53473421  0.58774591    -0.06280
N4334       N  0.71707950  0.54929596  0.56682778    -0.58400
N4335       N  0.78137798  0.55122921  0.61131903    -0.05960
N4336       N  0.79392921  0.57386413  0.60707628    -0.60530
N4337       N  0.78277397  0.53494452  0.59045276    -0.05560
N4338       N  0.79553685  0.54749323  0.57096844    -0.58380
N4339       N  0.72215461  0.54953518  0.60958319    -0.05240
N4340       N  0.71103553  0.57278453  0.60413719    -0.60880
C4341       C  0.70831144  0.57295334  0.57764409     0.95900
C4342       C  0.80274196  0.57154718  0.58217434     0.95670
N4343       N  0.78316567  0.53136984  0.68998623    -0.06470
N4344       N  0.80736379  0.53025574  0.69991868    -0.58980
N4345       N  0.71994031  0.54972664  0.67077290    -0.04590
N4346       N  0.69690494  0.56209134  0.66925661    -0.60230
N4347       N  0.72006095  0.53170783  0.68982353    -0.06500
N4348       N  0.69682639  0.53137893  0.70142151    -0.59250
N4349       N  0.78179704  0.55032201  0.67180024    -0.04230
N4350       N  0.80463221  0.56261878  0.66942103    -0.60320
Mn4351     Mn  0.75109784  0.55029697  0.64134171     1.18440
C4352       C  0.82055104  0.55035555  0.68734276     0.97980
C4353       C  0.68238145  0.55066437  0.68868017     0.98640
N4354       N  0.78349970  0.96545457  0.59112887    -0.06520
N4355       N  0.79552904  0.95089280  0.57232399    -0.62820
N4356       N  0.72337052  0.95047426  0.60874162    -0.05320
N4357       N  0.71444293  0.92640676  0.60245166    -0.63500
N4358       N  0.72613027  0.96551997  0.58715379    -0.06020
N4359       N  0.72044128  0.95055935  0.56575262    -0.63090
N4360       N  0.78261440  0.95084213  0.61306099    -0.04920
N4361       N  0.79501062  0.92798586  0.61027654    -0.63120
Mn4362     Mn  0.75449000  0.50021017  0.58799384     1.10660
C4363       C  0.80314779  0.92763835  0.58513207     0.99200
C4364       C  0.71316295  0.92620453  0.57581480     0.99280
N4365       N  0.71972256  0.97023567  0.68909132    -0.06030
N4366       N  0.69608513  0.97176329  0.69959404    -0.61400
N4367       N  0.78164709  0.95053258  0.67254573    -0.05350
N4368       N  0.80426914  0.93750210  0.67094651    -0.58130
N4369       N  0.78256851  0.96901061  0.69127713    -0.06660
N4370       N  0.80607940  0.96883112  0.70292340    -0.60970
N4371       N  0.71967639  0.95219069  0.66989513    -0.05650
N4372       N  0.69625690  0.94090285  0.66710058    -0.58160
Mn4373     Mn  0.75156594  0.00060948  0.69158623     1.20190
Mn4374     Mn  0.75150090  0.95113880  0.64150259     1.10090
Cl4375     Cl  0.75215897  0.00063286  0.63997768    -0.86130
C4376       C  0.68165232  0.95315981  0.68595317     0.96210
C4377       C  0.81930360  0.94872280  0.69024843     0.96000
N4378       N  0.71497722  0.53036739  0.81522970    -0.06280
N4379       N  0.69137980  0.53016454  0.80366981    -0.58400
N4380       N  0.77774059  0.55066419  0.83546322    -0.05960
N4381       N  0.80040871  0.56369086  0.83724837    -0.60530
N4382       N  0.77810374  0.53275782  0.81610599    -0.05560
N4383       N  0.80138073  0.53316660  0.80462647    -0.58380
N4384       N  0.71588352  0.54929154  0.83355968    -0.05240
N4385       N  0.69325208  0.56233810  0.83474495    -0.60880
C4386       C  0.67800319  0.55059397  0.81583700     0.95900
C4387       C  0.81516177  0.55286148  0.81761316     0.95670
N4388       N  0.77493060  0.53366674  0.91789127    -0.06470
N4389       N  0.78694212  0.54461713  0.93893509    -0.58980
N4390       N  0.71560812  0.54793384  0.89301998    -0.04590
N4391       N  0.70252855  0.57039625  0.89604911    -0.60230
N4392       N  0.71671358  0.53369960  0.91524410    -0.06500
N4393       N  0.70561861  0.54829581  0.93457713    -0.59250
N4394       N  0.77485784  0.55095428  0.89781624    -0.04230
N4395       N  0.78712343  0.57332968  0.90465249    -0.60320
Mn4396     Mn  0.74636188  0.54983414  0.86464450     1.18440
C4397       C  0.79470143  0.56920012  0.93004245     0.97980
C4398       C  0.69673316  0.57102784  0.92178024     0.98640
N4399       N  0.78071236  0.97094139  0.81526860    -0.06520
N4400       N  0.80409468  0.97262758  0.80392405    -0.62820
N4401       N  0.72017158  0.94808695  0.83428134    -0.05320
N4402       N  0.69849219  0.93365680  0.83677510    -0.63500
N4403       N  0.71736475  0.96696368  0.81613058    -0.06020
N4404       N  0.69315869  0.96575289  0.80619864    -0.63090
N4405       N  0.78131201  0.95243811  0.83394719    -0.04920
N4406       N  0.80462509  0.94083594  0.83547487    -0.63780
Mn4407     Mn  0.74752999  0.50023144  0.81400813     1.10660
C4408       C  0.81861866  0.95334551  0.81648385     0.99200
C4409       C  0.68179764  0.94437442  0.81874680     0.99280
N4410       N  0.71898019  0.96412868  0.91507641    -0.06030
N4411       N  0.70558410  0.95138620  0.93401418    -0.61400
N4412       N  0.78084643  0.95243364  0.89466329    -0.05350
N4413       N  0.79321683  0.92967684  0.89917484    -0.58130
N4414       N  0.77699442  0.96596074  0.91704985    -0.06660
N4415       N  0.78517344  0.95078466  0.93742507    -0.60970
N4416       N  0.72118753  0.94798026  0.89422623    -0.05650
N4417       N  0.70856123  0.92528703  0.89778989    -0.58160
Mn4418     Mn  0.74667296  0.49939572  0.91746933     1.20190
Mn4419     Mn  0.75105964  0.95029261  0.86395176     1.10090
Cl4420     Cl  0.74789424  0.49998189  0.86521258    -0.86130
C4421       C  0.69884576  0.92737786  0.92231845     0.96210
C4422       C  0.79533965  0.92822701  0.92566147     0.96000
N4423       N  0.53008008  0.67099739  0.72493272    -0.06280
N4424       N  0.54268559  0.68998843  0.71115668    -0.58400
N4425       N  0.97243431  0.65236354  0.70376078    -0.05960
N4426       N  0.96015638  0.65828169  0.68128702    -0.60530
N4427       N  0.97109846  0.67281716  0.72062617    -0.05560
N4428       N  0.95865125  0.69341196  0.70896646    -0.58380
N4429       N  0.53342820  0.64773088  0.71262999    -0.05240
N4430       N  0.55047249  0.64967753  0.69345715    -0.60880
C4431       C  0.55533437  0.67602736  0.69132165     0.95900
C4432       C  0.95118494  0.68365273  0.68458423     0.95670
N4433       N  0.96877829  0.56991710  0.72076941    -0.06470
N4434       N  0.94589883  0.55758703  0.71862315    -0.58980
N4435       N  0.53146788  0.58782860  0.70709705    -0.04590
N4436       N  0.55427434  0.58825061  0.69471126    -0.60230
N4437       N  0.53080061  0.56816781  0.72442871    -0.06500
N4438       N  0.55333431  0.55475057  0.72403550    -0.59250
N4439       N  0.97003762  0.58962091  0.70329984    -0.04230
N4440       N  0.94819948  0.59095038  0.68883999    -0.60320
Mn4441     Mn  0.50160122  0.61940072  0.70631956     1.18440
C4442       C  0.93330511  0.57057924  0.69836936     0.97980
C4443       C  0.56802464  0.56736116  0.70518653     0.98640
N4444       N  0.96605666  0.67074988  0.78768038    -0.06520
N4445       N  0.95208479  0.68989476  0.80011445    -0.62820
N4446       N  0.52476801  0.64892109  0.80689090    -0.05320
N4447       N  0.53547112  0.65336582  0.83038679    -0.63500
N4448       N  0.52447496  0.67116190  0.79241135    -0.06020
N4449       N  0.53351872  0.69157801  0.80727928    -0.63090
N4450       N  0.96453418  0.64810463  0.80143332    -0.04920
N4451       N  0.94850618  0.65081760  0.82142122    -0.63780
Mn4452     Mn  0.99789371  0.67280101  0.75631512     1.10660
C4453       C  0.94073342  0.67672218  0.82110728     0.99200
C4454       C  0.54069906  0.67988172  0.83087695     0.99280
N4455       N  0.52801227  0.56830891  0.78606426    -0.06030
N4456       N  0.55157278  0.55705922  0.78644343    -0.61400
N4457       N  0.96495086  0.58583026  0.80110339    -0.05350
N4458       N  0.94248993  0.58492251  0.81411446    -0.58130
N4459       N  0.96566680  0.56704367  0.78265156    -0.06660
N4460       N  0.94347110  0.55305870  0.78265945    -0.60970
N4461       N  0.52684176  0.58735989  0.80432766    -0.05650
N4462       N  0.54947256  0.58944412  0.81741192    -0.58160
Mn4463     Mn  0.49824073  0.56691724  0.75350566     1.20190
Mn4464     Mn  0.49522061  0.61730349  0.80360750     1.10090
Cl4465     Cl  0.49795466  0.61925487  0.75495532    -0.86130
C4466       C  0.56472750  0.57022018  0.80624736     0.96210
C4467       C  0.92915876  0.56414559  0.80272405     0.96000
N4468       N  0.53243025  0.93985814  0.72563485    -0.06280
N4469       N  0.55503758  0.95314426  0.72528616    -0.58400
N4470       N  0.97080242  0.92053962  0.70480122    -0.05960
N4471       N  0.94849158  0.91915516  0.69108833    -0.60530
N4472       N  0.96943727  0.93899979  0.72365633    -0.05560
N4473       N  0.94569750  0.95011253  0.72334240    -0.58380
N4474       N  0.53237135  0.92110406  0.70710750    -0.05240
N4475       N  0.55465926  0.92122598  0.69382925    -0.60880
C4476       C  0.56873829  0.94148104  0.70506587     0.95900
C4477       C  0.93306931  0.93812720  0.70238211     0.95670
N4478       N  0.97239197  0.83694901  0.71904623    -0.06470
N4479       N  0.95817849  0.81768411  0.70711636    -0.58980
N4480       N  0.53229884  0.85929366  0.70704173    -0.04590
N4481       N  0.54920110  0.85627653  0.68770621    -0.60230
N4482       N  0.53240186  0.83816437  0.72308071    -0.06500
N4483       N  0.54918371  0.81984836  0.71372081    -0.59250
N4484       N  0.97258064  0.85849662  0.70358256    -0.04230
N4485       N  0.95813814  0.85479742  0.68206891    -0.60320
Mn4486     Mn  0.00199141  0.89005128  0.70534233     1.18440
C4487       C  0.94890615  0.82956807  0.68424958     0.97980
C4488       C  0.55996376  0.83189020  0.69184910     0.98640
N4489       N  0.96834790  0.93890712  0.78538567    -0.06520
N4490       N  0.94547176  0.95179083  0.78531663    -0.62820
N4491       N  0.52938252  0.91824452  0.80613753    -0.05320
N4492       N  0.55170295  0.91509025  0.81953336    -0.63500
N4493       N  0.53142119  0.93723758  0.78802219    -0.06020
N4494       N  0.55561840  0.94712388  0.78877215    -0.63090
N4495       N  0.96795289  0.91920506  0.80283569    -0.04920
N4496       N  0.94516669  0.91828115  0.81509002    -0.63780
Mn4497     Mn  0.00050533  0.94033816  0.75574773     1.10660
C4498       C  0.93130691  0.93879748  0.80419260     0.99200
C4499       C  0.56794334  0.93353129  0.80893676     0.99280
N4500       N  0.52787564  0.83541064  0.79081939    -0.06030
N4501       N  0.53683343  0.81500081  0.80582028    -0.61400
N4502       N  0.96811602  0.85683098  0.80163554    -0.05350
N4503       N  0.95361347  0.85156574  0.82246154    -0.58130
N4504       N  0.96974545  0.83545454  0.78591088    -0.06660
N4505       N  0.95752218  0.81472928  0.79728404    -0.60970
N4506       N  0.52866270  0.85767426  0.80531094    -0.05650
N4507       N  0.53997806  0.85345769  0.82850070    -0.58160
Mn4508     Mn  0.00072176  0.83516510  0.75444399     1.20190
Mn4509     Mn  0.99831816  0.88829984  0.80396693     1.10090
Cl4510     Cl  0.00034658  0.88827457  0.75484611    -0.86130
C4511       C  0.54470818  0.82692206  0.82928008     0.96210
C4512       C  0.94701318  0.82545932  0.81989463     0.96000
C4513       C  0.84749416  0.94959600  0.81374028    -0.05500
C4514       C  0.85783543  0.92382520  0.80791624    -0.02620
C4515       C  0.88522278  0.92020360  0.80557493     0.02370
C4516       C  0.90253117  0.94246578  0.80833553    -0.05500
C4517       C  0.89237244  0.96752318  0.81691133    -0.02600
C4518       C  0.86500591  0.97067756  0.82067150     0.02370
C4519       C  0.84040876  0.90068379  0.80586886     0.37020
C4520       C  0.91040304  0.98882387  0.82475520     0.37010
C4521       C  0.85534186  0.99295714  0.83655816     0.35430
C4522       C  0.89551323  0.89333117  0.80100386     0.35430
N4523       N  0.84744956  0.50944698  0.85079878    -0.39390
N4524       N  0.90380581  0.87187020  0.79735446    -0.39390
N4525       N  0.92521842  0.50531756  0.83136213    -0.38830
N4526       N  0.82654458  0.88217922  0.80454653    -0.38830
C4527       C  0.65286393  0.93836548  0.81865333    -0.05500
C4528       C  0.64165632  0.92009406  0.80007886    -0.02620
C4529       C  0.61393817  0.91784270  0.79749809     0.02370
C4530       C  0.59713721  0.93338958  0.81393816    -0.05500
C4531       C  0.60845328  0.94862102  0.83498904    -0.02600
C4532       C  0.63614312  0.95153160  0.83704162     0.02370
C4533       C  0.65865254  0.90349690  0.78374817     0.37020
C4534       C  0.59163836  0.96120102  0.85462293     0.37010
C4535       C  0.64744912  0.96922189  0.85723343     0.35430
C4536       C  0.60264015  0.89995237  0.77748701     0.35430
N4537       N  0.65656248  0.98336565  0.87325854    -0.39390
N4538       N  0.59357821  0.88574819  0.76148456    -0.39390
N4539       N  0.57823453  0.97114552  0.87040311    -0.38830
N4540       N  0.67224847  0.89017538  0.77078352    -0.38830
C4541       C  0.84439273  0.55759775  0.81399225    -0.05500
C4542       C  0.85652221  0.54843766  0.79042773    -0.02620
C4543       C  0.88409957  0.54685708  0.78839229     0.02370
C4544       C  0.90047922  0.55856017  0.80808669    -0.05500
C4545       C  0.88874474  0.56679414  0.83228116    -0.02600
C4546       C  0.86094763  0.56732123  0.83492121     0.02370
C4547       C  0.84022362  0.54219329  0.76764681     0.37020
C4548       C  0.90531992  0.57123447  0.85559858     0.37010
C4549       C  0.84978821  0.57779000  0.85932433     0.35430
C4550       C  0.89535623  0.52896699  0.76882540     0.35430
N4551       N  0.84104548  0.58666687  0.87869105    -0.39390
N4552       N  0.90487033  0.51317492  0.75489628    -0.39390
N4553       N  0.91851429  0.57447806  0.87427987    -0.38830
N4554       N  0.82527808  0.53827128  0.75064445    -0.38830
C4555       C  0.59336813  0.56598575  0.81210996    -0.05500
C4556       C  0.60339061  0.53957156  0.81135736    -0.02620
C4557       C  0.63063123  0.53502878  0.80954101     0.02370
C4558       C  0.64886802  0.55627184  0.81329443    -0.05500
C4559       C  0.63871033  0.58276899  0.81713202    -0.02600
C4560       C  0.61118982  0.58772564  0.81560207     0.02370
C4561       C  0.58526253  0.51699935  0.81252949     0.37020
C4562       C  0.65652389  0.60530049  0.82125161     0.37010
C4563       C  0.60150982  0.61526235  0.81700973     0.35430
C4564       C  0.63919545  0.50893243  0.80089407     0.35430
N4565       N  0.59407172  0.63735910  0.81816755    -0.39390
N4566       N  0.64523166  0.98845107  0.79187491    -0.39390
N4567       N  0.67069133  0.62330853  0.82462799    -0.38830
N4568       N  0.56987630  0.49984354  0.81321627    -0.38830
C4569       C  0.84837369  0.94435851  0.69209787    -0.05500
C4570       C  0.86525570  0.95549778  0.67266909    -0.02620
C4571       C  0.89293009  0.95294259  0.67540411     0.02370
C4572       C  0.90393214  0.93947943  0.69769167    -0.05500
C4573       C  0.88698114  0.92558527  0.71500544    -0.02600
C4574       C  0.85939101  0.92870761  0.71285318     0.02370
C4575       C  0.85414080  0.97001114  0.65011475     0.37020
C4576       C  0.89821483  0.90518278  0.73221664     0.37010
C4577       C  0.84217687  0.91518173  0.73133598     0.35430
C4578       C  0.91001973  0.96345519  0.65493244     0.35430
N4579       N  0.82791886  0.90447176  0.74569118    -0.39390
N4580       N  0.92367563  0.97177151  0.63854762    -0.39390
N4581       N  0.90844666  0.88810264  0.74408843    -0.38830
N4582       N  0.84520868  0.98152115  0.63209894    -0.38830
C4583       C  0.65276398  0.94900302  0.68996503    -0.05500
C4584       C  0.64254317  0.95248776  0.71567176    -0.02620
C4585       C  0.61528726  0.95267916  0.71994634     0.02370
C4586       C  0.59740716  0.94606009  0.69920965    -0.05500
C4587       C  0.60768672  0.94126142  0.67335549    -0.02600
C4588       C  0.63513085  0.94320611  0.66865834     0.02370
C4589       C  0.66056245  0.95423579  0.73806644     0.37020
C4590       C  0.59007036  0.93510860  0.65123797     0.37010
C4591       C  0.64494067  0.93949652  0.64182355     0.35430
C4592       C  0.60613847  0.96048809  0.74581488     0.35430
N4593       N  0.65261366  0.93645880  0.62035016    -0.39390
N4594       N  0.59950525  0.96783410  0.76651154    -0.39390
N4595       N  0.57611172  0.93008168  0.63354386    -0.38830
N4596       N  0.67628310  0.95524817  0.75478918    -0.38830
C4597       C  0.90517157  0.56515098  0.69088888    -0.05500
C4598       C  0.88784232  0.58565264  0.68197955    -0.02620
C4599       C  0.86039360  0.58077119  0.68048432     0.02370
C4600       C  0.84974560  0.55562913  0.68908372    -0.05500
C4601       C  0.86760799  0.53520509  0.69741956    -0.02600
C4602       C  0.89489386  0.53932042  0.69568655     0.02370
C4603       C  0.89800912  0.61171766  0.67398460     0.37020
C4604       C  0.85885571  0.51120678  0.71097799     0.37010
C4605       C  0.91292275  0.51682537  0.69818189     0.35430
C4606       C  0.84330415  0.60242181  0.67126972     0.35430
N4607       N  0.92861766  0.50005214  0.70025450    -0.39390
N4608       N  0.82988416  0.61978401  0.66375565    -0.39390
N4609       N  0.85303155  0.49295474  0.72400597    -0.38830
N4610       N  0.90599219  0.63245541  0.66719905    -0.38830
C4611       C  0.65311636  0.55558144  0.69278696    -0.05500
C4612       C  0.63786841  0.57172177  0.67492164    -0.02620
C4613       C  0.61032025  0.57505021  0.67847445     0.02370
C4614       C  0.59709864  0.56228833  0.69992966    -0.05500
C4615       C  0.61234194  0.54587954  0.71729110    -0.02600
C4616       C  0.63985386  0.54319985  0.71427930     0.02370
C4617       C  0.65014799  0.58533644  0.65265595     0.37020
C4618       C  0.59965148  0.53150236  0.73848989     0.37010
C4619       C  0.65473625  0.52837326  0.73412993     0.35430
C4620       C  0.59575467  0.59140910  0.65936592     0.35430
N4621       N  0.66787705  0.51701431  0.74932736    -0.39390
N4622       N  0.58435376  0.60453226  0.64403840    -0.39390
N4623       N  0.58811611  0.52036746  0.75480674    -0.38830
N4624       N  0.65962615  0.59640795  0.63484476    -0.38830
C4625       C  0.81187041  0.84425130  0.56077300    -0.05500
C4626       C  0.82066324  0.85338382  0.58576358    -0.02620
C4627       C  0.82153796  0.88123839  0.59151367     0.02370
C4628       C  0.80999474  0.90047179  0.57375422    -0.05500
C4629       C  0.79876032  0.89091515  0.54958059    -0.02600
C4630       C  0.79982837  0.86292281  0.54314871     0.02370
C4631       C  0.82949710  0.83372656  0.60539354     0.37020
C4632       C  0.78601833  0.90970295  0.53150225     0.37010
C4633       C  0.78779775  0.85299249  0.51879850     0.35430
C4634       C  0.83466189  0.88995706  0.61595374     0.35430
N4635       N  0.77765417  0.84496649  0.99962267    -0.39390
N4636       N  0.84508438  0.89682260  0.63544669    -0.39390
N4637       N  0.77607225  0.92509343  0.51726982    -0.38830
N4638       N  0.83629540  0.81795920  0.62104004    -0.38830
C4639       C  0.81355637  0.59592471  0.56914679    -0.05500
C4640       C  0.79695912  0.61264637  0.55349992    -0.02620
C4641       C  0.80242869  0.64068369  0.55068733     0.02370
C4642       C  0.82533622  0.65197195  0.56247431    -0.05500
C4643       C  0.84191310  0.63482365  0.57802042    -0.02600
C4644       C  0.83621342  0.60715921  0.58094855     0.02370
C4645       C  0.77405638  0.60092127  0.54061109     0.37020
C4646       C  0.86504204  0.64540042  0.59161511     0.37010
C4647       C  0.85349210  0.59006534  0.59692994     0.35430
C4648       C  0.78407373  0.65785895  0.53640098     0.35430
N4649       N  0.86721434  0.57641927  0.60961789    -0.39390
N4650       N  0.76902942  0.67167110  0.52559012    -0.39390
N4651       N  0.88377600  0.65286936  0.60259370    -0.38830
N4652       N  0.75599415  0.59129951  0.53012063    -0.38830
C4653       C  0.79880956  0.90119959  0.93821805    -0.05500
C4654       C  0.78626621  0.87812821  0.92657994    -0.02620
C4655       C  0.79425423  0.85170894  0.93352707     0.02370
C4656       C  0.81490165  0.84801321  0.95185295    -0.05500
C4657       C  0.82547930  0.87105483  0.96551644    -0.02600
C4658       C  0.81729227  0.89744667  0.95874923     0.02370
C4659       C  0.76570460  0.88125388  0.90654529     0.37020
C4660       C  0.84564934  0.86809511  0.98598549     0.37010
C4661       C  0.82938022  0.92078153  0.97148913     0.35430
C4662       C  0.78255527  0.82843888  0.92034580     0.35430
N4663       N  0.83906742  0.93934974  0.98166034    -0.39390
N4664       N  0.77320825  0.80992171  0.90976571    -0.39390
N4665       N  0.86207410  0.86638554  0.00202153    -0.38830
N4666       N  0.74954542  0.88328466  0.89027092    -0.38830
C4667       C  0.82473502  0.64507272  0.95523924    -0.05500
C4668       C  0.84224394  0.62246391  0.95162802    -0.02620
C4669       C  0.83240982  0.59643542  0.94596093     0.02370
C4670       C  0.80541568  0.59167677  0.94632012    -0.05500
C4671       C  0.78846205  0.61233133  0.95507100    -0.02600
C4672       C  0.79756809  0.63929754  0.95767279     0.02370
C4673       C  0.87052265  0.62478449  0.95457656     0.37020
C4674       C  0.76216211  0.60514762  0.96314009     0.37010
C4675       C  0.77875586  0.66070674  0.96243037     0.35430
C4676       C  0.85012358  0.57424505  0.93975359     0.35430
N4677       N  0.76357595  0.67776700  0.96595138    -0.39390
N4678       N  0.86425808  0.55660753  0.93481027    -0.39390
N4679       N  0.74153028  0.59901951  0.97049402    -0.38830
N4680       N  0.89303153  0.62609752  0.95771813    -0.38830
C4681       C  0.93963822  0.81074797  0.84458461    -0.05500
C4682       C  0.95864003  0.79504163  0.85822703    -0.02620
C4683       C  0.95789069  0.79244679  0.88643728     0.02370
C4684       C  0.93895296  0.80706995  0.90164385    -0.05500
C4685       C  0.91932052  0.82184454  0.88729506    -0.02600
C4686       C  0.91860733  0.82145758  0.85917806     0.02370
C4687       C  0.97951480  0.78214086  0.84330249     0.37020
C4688       C  0.89962318  0.83802746  0.90077968     0.37010
C4689       C  0.89562488  0.83164601  0.84512004     0.35430
C4690       C  0.97671316  0.77452946  0.89926648     0.35430
N4691       N  0.87649321  0.83892965  0.83472523    -0.39390
N4692       N  0.99177845  0.76001796  0.90914231    -0.39390
N4693       N  0.88390935  0.85129602  0.91107336    -0.38830
N4694       N  0.99609900  0.77161256  0.83150225    -0.38830
C4695       C  0.93545732  0.80921426  0.60241412    -0.05500
C4696       C  0.95530415  0.79585589  0.61760044    -0.02620
C4697       C  0.95660369  0.79848997  0.64574609     0.02370
C4698       C  0.93934572  0.81590507  0.65933496    -0.05500
C4699       C  0.91887493  0.82841502  0.64466687    -0.02600
C4700       C  0.91719160  0.82564289  0.61650876     0.02370
C4701       C  0.97647746  0.78221889  0.60405847     0.37020
C4702       C  0.90028869  0.84553862  0.65866552     0.37010
C4703       C  0.89840623  0.84229267  0.60215109     0.35430
C4704       C  0.97726596  0.78516293  0.66070154     0.35430
N4705       N  0.88401622  0.85616584  0.59053295    -0.39390
N4706       N  0.99345959  0.77481335  0.67334825    -0.39390
N4707       N  0.88547841  0.85907539  0.66994096    -0.38830
N4708       N  0.99322872  0.77239835  0.59199672    -0.38830
C4709       C  0.93050262  0.68817908  0.84695647    -0.05500
C4710       C  0.93133045  0.71552429  0.85491359    -0.02620
C4711       C  0.92930313  0.72197576  0.88267876     0.02370
C4712       C  0.93341202  0.70151916  0.90217272    -0.05500
C4713       C  0.93041631  0.67452454  0.89358596    -0.02600
C4714       C  0.92434024  0.66916065  0.86682096     0.02370
C4715       C  0.92995298  0.73625575  0.83472328     0.37020
C4716       C  0.93465570  0.65197355  0.91150178     0.37010
C4717       C  0.90868675  0.64582897  0.85986200     0.35430
C4718       C  0.91491781  0.74574987  0.89057484     0.35430
N4719       N  0.89472028  0.62843816  0.85379558    -0.39390
N4720       N  0.90120338  0.76319611  0.89703359    -0.39390
N4721       N  0.93899002  0.63381272  0.92537878    -0.38830
N4722       N  0.92839948  0.75241769  0.81811991    -0.38830
C4723       C  0.93975454  0.71041687  0.60469815    -0.05500
C4724       C  0.96481233  0.71038050  0.61675054    -0.02620
C4725       C  0.96749854  0.70750657  0.64459361     0.02370
C4726       C  0.94581535  0.70032144  0.66031379    -0.05500
C4727       C  0.92047844  0.70170756  0.64873447    -0.02600
C4728       C  0.91739592  0.70822627  0.62127098     0.02370
C4729       C  0.98774725  0.71065855  0.59999266     0.37020
C4730       C  0.89773706  0.69634626  0.66503046     0.37010
C4731       C  0.89138882  0.71320470  0.61031397     0.35430
C4732       C  0.99244532  0.71241957  0.65744694     0.35430
N4733       N  0.87060308  0.71742383  0.60169914    -0.39390
N4734       N  0.51183719  0.71759946  0.66840446    -0.39390
N4735       N  0.87955056  0.69207378  0.67805317    -0.38830
N4736       N  0.50500196  0.71058660  0.58516999    -0.38830
C4737       C  0.68752760  0.90283369  0.93450017    -0.05500
C4738       C  0.70431424  0.88445181  0.94796314    -0.02620
C4739       C  0.69807015  0.85650501  0.94908460     0.02370
C4740       C  0.67470403  0.84672977  0.93697103    -0.05500
C4741       C  0.65819832  0.86530212  0.92323727    -0.02600
C4742       C  0.66412021  0.89309568  0.92289526     0.02370
C4743       C  0.72789939  0.89445585  0.96091280     0.37020
C4744       C  0.63458265  0.85594940  0.90960556     0.37010
C4745       C  0.64590652  0.91198569  0.91051622     0.35430
C4746       C  0.71524465  0.83802212  0.96334053     0.35430
N4747       N  0.63105400  0.92695869  0.90104878    -0.39390
N4748       N  0.72880555  0.82296113  0.97453607    -0.39390
N4749       N  0.61566032  0.84903410  0.89859213    -0.38830
N4750       N  0.74657728  0.90248456  0.97156484    -0.38830
C4751       C  0.68909517  0.59751834  0.93337992    -0.05500
C4752       C  0.70377660  0.62109348  0.92655457    -0.02620
C4753       C  0.69377533  0.64729382  0.93153578     0.02370
C4754       C  0.66775162  0.65052126  0.94026067    -0.05500
C4755       C  0.65199800  0.62667151  0.94333561    -0.02600
C4756       C  0.66344416  0.60070189  0.94258279     0.02370
C4757       C  0.72848944  0.61876921  0.91245424     0.37020
C4758       C  0.62352353  0.62799832  0.94503262     0.37010
C4759       C  0.64797489  0.57693289  0.94893005     0.35430
C4760       C  0.70952610  0.67081579  0.92518594     0.35430
N4761       N  0.63572836  0.55798945  0.95412877    -0.39390
N4762       N  0.72208885  0.68950094  0.91984677    -0.39390
N4763       N  0.60082533  0.62877316  0.94625382    -0.38830
N4764       N  0.74791950  0.61751140  0.90070575    -0.38830
C4765       C  0.69611840  0.84783051  0.54383602    -0.05500
C4766       C  0.68720625  0.87140925  0.53017664    -0.02620
C4767       C  0.69554810  0.89735231  0.53839474     0.02370
C4768       C  0.71177125  0.90001350  0.56102040    -0.05500
C4769       C  0.72365123  0.87637723  0.57211370    -0.02600
C4770       C  0.71591944  0.85038278  0.56334033     0.02370
C4771       C  0.66744991  0.86953730  0.50924174     0.37020
C4772       C  0.74289929  0.87845265  0.59356934     0.37010
C4773       C  0.72643470  0.82638927  0.57620258     0.35430
C4774       C  0.68565965  0.92129403  0.52493452     0.35430
N4775       N  0.73482763  0.80728718  0.58653170    -0.39390
N4776       N  0.67785096  0.94032933  0.01403500    -0.39390
N4777       N  0.75796312  0.87966566  0.61097474    -0.38830
N4778       N  0.65115830  0.86896701  0.99300758    -0.38830
C4779       C  0.70458584  0.59925207  0.56359591    -0.05500
C4780       C  0.71731944  0.62297970  0.57358465    -0.02620
C4781       C  0.70918044  0.64895954  0.56519908     0.02370
C4782       C  0.68796594  0.65158454  0.54730105    -0.05500
C4783       C  0.67691955  0.62779680  0.53556078    -0.02600
C4784       C  0.68559940  0.60183751  0.54332448     0.02370
C4785       C  0.73827092  0.62101569  0.59335465     0.37020
C4786       C  0.65491384  0.62966935  0.51711322     0.37010
C4787       C  0.67340317  0.57782396  0.53203476     0.35430
C4788       C  0.72107697  0.67295992  0.57682849     0.35430
N4789       N  0.66365682  0.55871293  0.52297826    -0.39390
N4790       N  0.73055446  0.69206515  0.58619103    -0.39390
N4791       N  0.63661931  0.63111170  0.50334287    -0.38830
N4792       N  0.75480486  0.61987821  0.60932986    -0.38830
C4793       C  0.55490675  0.80310004  0.91174856    -0.05500
C4794       C  0.57429725  0.79640399  0.89263290    -0.02620
C4795       C  0.56962846  0.80086534  0.86494923     0.02370
C4796       C  0.54641022  0.81394770  0.85630887    -0.05500
C4797       C  0.52753865  0.82141798  0.87592155    -0.02600
C4798       C  0.53138929  0.81510587  0.90309716     0.02370
C4799       C  0.59997227  0.78732017  0.90154441     0.37020
C4800       C  0.50558032  0.83889967  0.86927739     0.37010
C4801       C  0.51234282  0.82391329  0.92276723     0.35430
C4802       C  0.58975817  0.79440170  0.84566332     0.35430
N4803       N  0.99733301  0.83103398  0.93851076    -0.39390
N4804       N  0.60584352  0.78931073  0.83025703    -0.39390
N4805       N  0.98853032  0.85388877  0.86539390    -0.38830
N4806       N  0.62085822  0.78109044  0.90850408    -0.38830
C4807       C  0.57556079  0.80691553  0.61297589    -0.05500
C4808       C  0.56300115  0.78902806  0.63116714    -0.02620
C4809       C  0.56347174  0.79402861  0.65901195     0.02370
C4810       C  0.57335673  0.81846485  0.66895366    -0.05500
C4811       C  0.58861256  0.83465008  0.65189564    -0.02600
C4812       C  0.58977293  0.82910217  0.62418371     0.02370
C4813       C  0.54825611  0.76595830  0.62211105     0.37020
C4814       C  0.60268118  0.85759722  0.66310251     0.37010
C4815       C  0.60441215  0.84755283  0.60747431     0.35430
C4816       C  0.55352477  0.77427425  0.67767939     0.35430
N4817       N  0.61615685  0.86244143  0.59438451    -0.39390
N4818       N  0.54625148  0.75871475  0.69314796    -0.39390
N4819       N  0.61406757  0.87567977  0.67223225    -0.38830
N4820       N  0.53577419  0.74724020  0.61672878    -0.38830
C4821       C  0.54220992  0.69372399  0.85738288    -0.05500
C4822       C  0.56570348  0.70609702  0.86606247    -0.02620
C4823       C  0.57015044  0.71077235  0.89366651     0.02370
C4824       C  0.55004319  0.70575277  0.91242722    -0.05500
C4825       C  0.52591345  0.69527321  0.90355776    -0.02600
C4826       C  0.52241669  0.68819368  0.87651984     0.02370
C4827       C  0.58615010  0.71175803  0.84692862     0.37020
C4828       C  0.50610192  0.68813094  0.92299466     0.37010
C4829       C  0.50016607  0.67133019  0.86961126     0.35430
C4830       C  0.59621784  0.71813361  0.90293710     0.35430
N4831       N  0.48338074  0.65627514  0.86506124    -0.39390
N4832       N  0.61729699  0.72301611  0.91031646    -0.39390
N4833       N  0.49076290  0.68201567  0.93875837    -0.38830
N4834       N  0.60242648  0.71638057  0.83162871    -0.38830
C4835       C  0.55977701  0.68586228  0.66347554    -0.05500
C4836       C  0.54595758  0.67273449  0.64201383    -0.02620
C4837       C  0.55231280  0.67802735  0.61541751     0.02370
C4838       C  0.57039717  0.69832325  0.60943870    -0.05500
C4839       C  0.58428501  0.71161544  0.63026250    -0.02600
C4840       C  0.57918196  0.70514748  0.65730724     0.02370
C4841       C  0.52443183  0.65403803  0.64668247     0.37020
C4842       C  0.60380291  0.73181285  0.62375214     0.37010
C4843       C  0.59417486  0.71781161  0.67859999     0.35430
C4844       C  0.54027822  0.66228506  0.59397115     0.35430
N4845       N  0.60615020  0.72798219  0.69560877    -0.39390
N4846       N  0.53077627  0.64974579  0.57690362    -0.39390
N4847       N  0.61928984  0.74801220  0.61846456    -0.38830
N4848       N  0.50741451  0.63891671  0.64986710    -0.38830
loop_ 
_geom_bond_atom_site_label_1 
_geom_bond_atom_site_label_2 
_geom_bond_distance 
_geom_bond_site_symmetry_2 
_ccdc_geom_bond_type 
N1            N2   1.332       .  A
N1            N7   1.321       .  A
N1         Mn636   2.254   1_554  S
N2            C9   1.364       .  A
N3            N5   1.316       .  A
N3            N4   1.303       .  A
N3         Mn625   2.140       .  S
N4           C10   1.330       .  A
N5            N6   1.335       .  A
N5          Mn30   2.262       .  S
N6           C10   1.372       .  A
N7            N8   1.309       .  A
N7          Mn19   2.167       .  S
N8            C9   1.336       .  A
C9          C540   1.493       .  S
C10         C512   1.507       .  S
N11          N17   1.311       .  A
N11          N12   1.325       .  A
N11        Mn647   2.207       .  S
N12          C20   1.353       .  A
N13          N14   1.319       .  A
N13          N15   1.310       .  A
N13         Mn19   2.155       .  S
N14          C21   1.345       .  A
N15          N16   1.320       .  A
N15         Mn41   2.199       .  S
N16          C21   1.352       .  A
N17          N18   1.319       .  A
N17        Mn625   2.170       .  S
N18          C20   1.345       .  A
Mn19        N609   2.140   1_554  S
Mn19        N623   2.170   1_554  S
Mn19        Cl43   2.434       .  S
C20         C582   1.486       .  S
C21         C596   1.475       .  S
N22          N23   1.334       .  A
N22          N28   1.319       .  A
N22         Mn30   2.253       .  S
N23          C31   1.368       .  A
N24          N26   1.324       .  A
N24          N25   1.310       .  A
N24        Mn648   2.167       .  S
N25          C32   1.336       .  A
N26          N27   1.332       .  A
N26        Mn636   2.259   1_554  S
N27          C32   1.362       .  A
N28          N29   1.305       .  A
N28         Mn42   2.162       .  S
N29          C31   1.334       .  A
Mn30        N607   2.254       .  S
Mn30        N632   2.259       .  S
Mn30       Cl649   2.616       .  S
C31         C498   1.491       .  S
C32         C523   1.488       .  S
N33          N34   1.328       .  A
N33          N39   1.309       .  A
N33         Mn41   2.213       .  S
N34          C44   1.359       .  A
N35          N36   1.322       .  A
N35          N37   1.312       .  A
N35         Mn42   2.180       .  S
N36          C45   1.345       .  A
N37          N38   1.326       .  A
N37        Mn647   2.210       .  S
N38          C45   1.354       .  A
N39          N40   1.322       .  A
N39        Mn648   2.202       .  S
N40          C44   1.355       .  A
Mn41        N617   2.207   1_554  S
Mn41        N643   2.210   1_554  S
Mn41        Cl43   2.605       .  S
Mn42        N630   2.167       .  S
Mn42        N645   2.202       .  S
Mn42       Cl649   2.433       .  S
Cl43       Mn636   2.616   1_554  S
Cl43       Mn648   2.433       .  S
C44         C565   1.522       .  S
C45         C551   1.493       .  S
N46          N47   1.325       .  A
N46          N52   1.311       .  A
N46         Mn75   2.218       .  S
N47          C54   1.356       .  A
N48          N50   1.311       .  A
N48          N49   1.317       .  A
N48        Mn670   2.169       .  S
N49          C55   1.344       .  A
N50          N51   1.333       .  A
N50        Mn681   2.232       .  S
N51          C55   1.361       .  A
N52          N53   1.323       .  A
N52         Mn64   2.167       .  S
N53          C54   1.347       .  A
C54         C481   1.499       .  S
C55         C470   1.503       .  S
N56          N62   1.318       .  A
N56          N57   1.336       .  A
N56        Mn692   2.264       .  S
N57          C65   1.370       .  A
N58          N59   1.307       .  A
N58          N60   1.319       .  A
N58         Mn64   2.153       .  S
N59          C66   1.335       .  A
N60          N61   1.336       .  A
N60         Mn86   2.266       .  S
N61          C66   1.370       .  A
N62          N63   1.304       .  A
N62        Mn670   2.157       .  S
N63          C65   1.332       .  A
Mn64        N654   2.169   1_554  S
Mn64        N668   2.157   1_554  S
Mn64        Cl88   2.436       .  S
C65         C425   1.517       .  S
C66         C400   1.500       .  S
N67          N68   1.325       .  A
N67          N73   1.306       .  A
N67        Mn681   2.190       .  S
N68          C76   1.357       .  A
N69          N71   1.311       .  A
N69          N70   1.322       .  A
N69         Mn87   2.189       .  S
N70          C77   1.353       .  A
N71          N72   1.323       .  A
N71         Mn75   2.222       .  S
N72          C77   1.358       .  A
N73          N74   1.318       .  A
N73        Mn693   2.192       .  S
N74          C76   1.353       .  A
Mn75        N656   2.232   1_554  S
Mn75        N673   2.190   1_554  S
Mn75        Cl88   2.588       .  S
C76         C442   1.517       .  S
C77         C453   1.524       .  S
N78          N79   1.333       .  A
N78          N84   1.321       .  A
N78         Mn86   2.240       .  S
N79          C89   1.362       .  A
N80          N81   1.306       .  A
N80          N82   1.323       .  A
N80        Mn693   2.159       .  S
N81          C90   1.331       .  A
N82          N83   1.333       .  A
N82        Mn692   2.273       .  S
N83          C90   1.365       .  A
N84          N85   1.309       .  A
N84         Mn87   2.178       .  S
N85          C89   1.336       .  A
Mn86        N662   2.264   1_554  S
Mn86        N688   2.273   1_554  S
Mn86        Cl88   2.636       .  S
Mn87        N679   2.192   1_554  S
Mn87        N686   2.159   1_554  S
Mn87        Cl88   2.437       .  S
C89         C383   1.480       .  S
C90         C414   1.491       .  S
N91          N92   1.332       .  A
N91          N97   1.324       .  A
N91        Mn120   2.270       .  S
N92          C99   1.364       .  A
N93          N95   1.320       .  A
N93          N94   1.308       .  A
N93        Mn109   2.164       .  S
N94         C100   1.334       .  A
N95          N96   1.333       .  A
N95        Mn120   2.244       .  S
N96         C100   1.363       .  A
N97          N98   1.309       .  A
N97        Mn109   2.158       .  S
N98          C99   1.333       .  A
C99         C537   1.491       .  S
C100        C397   1.481       .  S
N101        N107   1.310       .  A
N101        N102   1.325       .  A
N101      Mn1343   2.217       .  S
N102        C110   1.359       .  A
N103        N104   1.323       .  A
N103        N105   1.307       .  A
N103       Mn109   2.176       .  S
N104        C111   1.353       .  A
N105        N106   1.322       .  A
N105      Mn1343   2.221       .  S
N106        C111   1.360       .  A
N107        N108   1.319       .  A
N107       Mn109   2.173       .  S
N108        C110   1.348       .  A
Mn109     Cl1345   2.457       .  S
C110        C358   1.510       .  S
C111        C369   1.524       .  S
N112        N113   1.337       .  A
N112        N118   1.318       .  A
N112      Mn1332   2.269       .  S
N113        C121   1.372       .  A
N114        N116   1.323       .  A
N114        N115   1.311       .  A
N114       Mn132   2.168       .  S
N115        C122   1.336       .  A
N116        N117   1.331       .  A
N116      Mn1332   2.243       .  S
N117        C122   1.360       .  A
N118        N119   1.301       .  A
N118       Mn132   2.140       .  S
N119        C121   1.330       .  A
Mn120      N1324   2.269   1_545  S
Mn120      N1328   2.243   1_545  S
Mn120     Cl1345   2.609       .  S
C121        C386   1.500       .  S
C122        C526   1.492       .  S
N123        N124   1.319       .  A
N123        N129   1.310       .  A
N123       Mn131   2.213       .  S
N124        C134   1.357       .  A
N125        N126   1.321       .  A
N125        N127   1.309       .  A
N125       Mn132   2.174       .  S
N126        C135   1.346       .  A
N127        N128   1.326       .  A
N127       Mn131   2.219       .  S
N128        C135   1.359       .  A
N129        N130   1.323       .  A
N129       Mn132   2.166       .  S
N130        C134   1.349       .  A
Mn131      N1313   2.217       .  S
Mn131      N1317   2.221       .  S
Mn131      Cl133   2.586       .  S
Mn132      Cl133   2.449       .  S
Cl133     Mn1321   2.457       .  S
Cl133     Mn1332   2.609       .  S
C134        C341   1.500       .  S
C135        C327   1.497       .  S
N136        N137   1.328       .  A
N136        N142   1.310       .  A
N136       Mn165   2.228       .  S
N137        C144   1.363       .  A
N138        N140   1.312       .  A
N138        N139   1.324       .  A
N138       Mn154   2.176       .  S
N139        C145   1.352       .  A
N140        N141   1.322       .  A
N140       Mn165   2.241       .  S
N141        C145   1.361       .  A
N142        N143   1.321       .  A
N142       Mn154   2.188       .  S
N143        C144   1.349       .  A
C144        C316   1.513       .  S
C145        C299   1.519       .  S
N146        N152   1.322       .  A
N146        N147   1.328       .  A
N146       Mn176   2.224   1_545  S
N147        C155   1.356       .  A
N148        N149   1.303       .  A
N148        N150   1.320       .  A
N148       Mn154   2.127       .  S
N149        C156   1.326       .  A
N150        N151   1.335       .  A
N150       Mn176   2.281   1_545  S
N151        C156   1.370       .  A
N152        N153   1.314       .  A
N152       Mn154   2.196       .  S
N153        C155   1.342       .  A
Mn154      Cl178   2.466   1_545  S
C155        C428   1.478       .  S
C156        C509   1.484       .  S
N157        N158   1.326       .  A
N157        N163   1.311       .  A
N157      Mn1377   2.223       .  S
N158        C166   1.358       .  A
N159        N161   1.312       .  A
N159        N160   1.322       .  A
N159       Mn177   2.156       .  S
N160        C167   1.344       .  A
N161        N162   1.325       .  A
N161      Mn1377   2.255       .  S
N162        C167   1.363       .  A
N163        N164   1.319       .  A
N163       Mn177   2.165       .  S
N164        C166   1.346       .  A
Mn165      N1369   2.223   1_545  S
Mn165      N1373   2.255   1_545  S
Mn165      Cl178   2.566   1_545  S
C166        C271   1.488       .  S
C167        C285   1.502       .  S
N168        N169   1.334       .  A
N168        N174   1.319       .  A
N168      Mn1388   2.246       .  S
N169        C179   1.365       .  A
N170        N171   1.308       .  A
N170        N172   1.321       .  A
N170       Mn177   2.152       .  S
N171        C180   1.333       .  A
N172        N173   1.332       .  A
N172      Mn1388   2.260       .  S
N173        C180   1.364       .  A
N174        N175   1.307       .  A
N174       Mn177   2.161       .  S
N175        C179   1.333       .  A
Mn176      N1380   2.246       .  S
Mn176      N1384   2.260       .  S
Mn176      Cl178   2.620       .  S
Mn177     Cl1390   2.462       .  S
Cl178     Mn1389   2.462       .  S
C179        C495   1.480       .  S
C180        C411   1.488       .  S
N181        N182   1.335       .  A
N181        N187   1.315       .  A
N181      Mn2634   2.283   1_455  S
N182        C189   1.373       .  A
N183        N185   1.318       .  A
N183        N184   1.316       .  A
N183      Mn2623   2.206       .  S
N184        C190   1.345       .  A
N185        N186   1.332       .  A
N185       Mn210   2.238       .  S
N186        C190   1.363       .  A
N187        N188   1.304       .  A
N187       Mn199   2.163       .  S
N188        C189   1.331       .  A
C189        C593   1.498       .  S
C190        C484   1.494       .  S
N191        N197   1.313       .  A
N191        N192   1.318       .  A
N191      Mn2645   2.217       .  S
N192        C200   1.358       .  A
N193        N194   1.321       .  A
N193        N195   1.306       .  A
N193       Mn199   2.177       .  S
N194        C201   1.351       .  A
N195        N196   1.324       .  A
N195       Mn221   2.218   1_455  S
N196        C201   1.363       .  A
N197        N198   1.322       .  A
N197      Mn2623   2.184       .  S
N198        C200   1.352       .  A
Mn199      N2607   2.206   1_455  S
Mn199      N2621   2.184   1_455  S
Mn199      Cl223   2.446   1_455  S
C200        C355   1.501       .  S
C201        C372   1.525       .  S
N202        N203   1.339       .  A
N202        N208   1.319       .  A
N202       Mn210   2.270       .  S
N203        C211   1.371       .  A
N204        N206   1.319       .  A
N204        N205   1.311       .  A
N204       Mn222   2.175   1_455  S
N205        C212   1.338       .  A
N206        N207   1.333       .  A
N206      Mn2634   2.250   1_455  S
N207        C212   1.364       .  A
N208        N209   1.304       .  A
N208      Mn2646   2.182       .  S
N209        C211   1.340       .  A
Mn210      N2605   2.283       .  S
Mn210      N2630   2.250       .  S
Mn210     Cl2647   2.648       .  S
C211        C467   1.509       .  S
C212        C579   1.494       .  S
N213        N214   1.321       .  A
N213        N219   1.313       .  A
N213       Mn221   2.217   1_455  S
N214        C224   1.357       .  A
N215        N216   1.322       .  A
N215        N217   1.310       .  A
N215      Mn2646   2.193       .  S
N216        C225   1.354       .  A
N217        N218   1.325       .  A
N217      Mn2645   2.219       .  S
N218        C225   1.361       .  A
N219        N220   1.324       .  A
N219       Mn222   2.185   1_455  S
N220        C224   1.350       .  A
Mn221      N2615   2.217       .  S
Mn221      N2641   2.219       .  S
Mn221      Cl223   2.588       .  S
Mn222      N2632   2.182       .  S
Mn222      N2639   2.193       .  S
Mn222      Cl223   2.445       .  S
Cl223     Mn2634   2.648       .  S
C224        C313   1.498       .  S
C225        C302   1.512       .  S
N226        N227   1.326       .  A
N226        N232   1.310       .  A
N226      Mn2679   2.228       .  S
N227        C234   1.362       .  A
N228        N230   1.314       .  A
N228        N229   1.323       .  A
N228       Mn244   2.187       .  S
N229        C235   1.349       .  A
N230        N231   1.326       .  A
N230       Mn255   2.245       .  S
N231        C235   1.361       .  A
N232        N233   1.320       .  A
N232      Mn2668   2.181       .  S
N233        C234   1.351       .  A
C234        C344   1.508       .  S
C235        C330   1.500       .  S
N236        N242   1.319       .  A
N236        N237   1.334       .  A
N236       Mn266   2.277       .  S
N237        C245   1.369       .  A
N238        N239   1.310       .  A
N238        N240   1.320       .  A
N238      Mn2668   2.166       .  S
N239        C246   1.339       .  A
N240        N241   1.331       .  A
N240      Mn2690   2.267       .  S
N241        C246   1.368       .  A
N242        N243   1.311       .  A
N242       Mn244   2.164       .  S
N243        C245   1.339       .  A
Mn244      N2656   2.181       .  S
Mn244      N2662   2.166       .  S
Mn244      Cl268   2.484       .  S
C245        C456   1.495       .  S
C246        C568   1.494       .  S
N247        N248   1.326       .  A
N247        N253   1.311       .  A
N247       Mn255   2.221       .  S
N248        C256   1.358       .  A
N249        N251   1.313       .  A
N249        N250   1.323       .  A
N249      Mn2691   2.169   1_455  S
N250        C257   1.345       .  A
N251        N252   1.325       .  A
N251      Mn2679   2.251       .  S
N252        C257   1.362       .  A
N253        N254   1.318       .  A
N253       Mn267   2.172       .  S
N254        C256   1.348       .  A
Mn255      N2650   2.228       .  S
Mn255      N2675   2.251       .  S
Mn255      Cl268   2.574       .  S
C256        C274   1.492       .  S
C257        C288   1.504       .  S
N258        N259   1.337       .  A
N258        N264   1.318       .  A
N258      Mn2690   2.277       .  S
N259        C269   1.370       .  A
N260        N261   1.311       .  A
N260        N262   1.320       .  A
N260       Mn267   2.190       .  S
N261        C270   1.340       .  A
N262        N263   1.332       .  A
N262       Mn266   2.240       .  S
N263        C270   1.363       .  A
N264        N265   1.309       .  A
N264      Mn2691   2.162   1_455  S
N265        C269   1.334       .  A
Mn266      N2664   2.267       .  S
Mn266      N2682   2.277       .  S
Mn266      Cl268   2.626       .  S
Mn267      N2673   2.169       .  S
Mn267      N2688   2.162       .  S
Mn267      Cl268   2.464       .  S
C269        C554   1.502       .  S
C270        C439   1.488       .  S
C271        C272   1.409       .  A
C271        C276   1.413       .  A
C272        C273   1.411       .  A
C272        C277   1.451       .  S
C273        C274   1.416       .  A
C273        C280   1.446       .  S
C274        C275   1.409       .  A
C275        C276   1.415       .  A
C275        C278   1.449       .  S
C276        C279   1.446       .  S
C277        N284   1.157       .  T
C278       N1495   1.157       .  T
C279       N1493   1.156       .  T
C280        N282   1.156       .  T
N281       C1491   1.156   1_545  T
N283       C1490   1.157   1_545  T
C285        C286   1.412       .  A
C285        C290   1.417       .  A
C286        C287   1.420       .  A
C286        C291   1.449       .  S
C287        C288   1.417       .  A
C287        C294   1.451       .  S
C288        C289   1.413       .  A
C289        C290   1.419       .  A
C289        C292   1.448       .  S
C290        C293   1.451       .  S
C291        N298   1.157       .  T
C292        N297   1.157       .  T
C293        N295   1.157       .  T
C294        N296   1.157       .  T
C299        C300   1.411       .  A
C299        C304   1.422       .  A
C300        C301   1.410       .  A
C300        C305   1.438       .  S
C301        C302   1.409       .  A
C301        C308   1.441       .  S
C302        C303   1.415       .  A
C303        C304   1.422       .  A
C303        C306   1.451       .  S
C304        C307   1.447       .  S
C305        N312   1.153       .  T
C306        N311   1.158       .  T
C307        N309   1.157       .  T
C308        N310   1.155       .  T
C313        C314   1.402       .  A
C313        C318   1.417       .  A
C314        C315   1.408       .  A
C314        C319   1.450       .  S
C315        C316   1.413       .  A
C315        C322   1.429       .  S
C316        C317   1.421       .  A
C317        C318   1.423       .  A
C317        C320   1.450       .  S
C318        C321   1.449       .  S
C319        N326   1.156   1_545  T
C320        N325   1.157       .  T
C321        N323   1.157       .  T
C322       N1536   1.150   1_545  T
N324       C1534   1.150       .  T
C327        C328   1.417       .  A
C327        C332   1.409       .  A
C328        C329   1.419       .  A
C328        C333   1.450       .  S
C329        C330   1.412       .  A
C329        C336   1.449       .  S
C330        C331   1.410       .  A
C331        C332   1.415       .  A
C331        C334   1.443       .  S
C332        C335   1.447       .  S
C333        N340   1.157       .  T
C334        N339   1.155       .  T
C335        N337   1.156       .  T
C336        N338   1.157       .  T
C341        C342   1.404       .  A
C341        C346   1.417       .  A
C342        C343   1.405       .  A
C342        C347   1.445       .  S
C343        C344   1.413       .  A
C343        C350   1.433       .  S
C344        C345   1.421       .  A
C345        C346   1.422       .  A
C345        C348   1.451       .  S
C346        C349   1.450       .  S
C347        N354   1.154       .  T
C348        N353   1.157       .  T
C349        N351   1.157       .  T
C350        N352   1.151       .  T
C355        C356   1.413       .  A
C355        C360   1.403       .  A
C356        C357   1.419       .  A
C356        C361   1.448       .  S
C357        C358   1.426       .  A
C357        C364   1.452       .  S
C358        C359   1.419       .  A
C359        C360   1.407       .  A
C359        C362   1.442       .  S
C360        C363   1.446       .  S
C361        N368   1.156       .  T
C362        N367   1.156   1_545  T
C363        N365   1.155       .  T
C364        N366   1.158       .  T
C369        C370   1.424       .  A
C369        C374   1.417       .  A
C370        C371   1.424       .  A
C370        C375   1.451       .  S
C371        C372   1.423       .  A
C371        C378   1.452       .  S
C372        C373   1.416       .  A
C373        C374   1.415       .  A
C373        C376   1.438       .  S
C374        C377   1.445       .  S
C375        N382   1.158       .  T
C376        N381   1.153       .  T
C377        N379   1.155       .  T
C378        N380   1.158       .  T
C383        C384   1.400       .  A
C383        C388   1.414       .  A
C384        C385   1.407       .  A
C384        C389   1.452       .  S
C385        C386   1.426       .  A
C385        C392   1.454       .  S
C386        C387   1.415       .  A
C387        C388   1.421       .  A
C387        C390   1.448       .  S
C388        C391   1.445       .  S
C389        N396   1.157       .  T
C390        N395   1.157       .  T
C391        N999   1.156   1_554  T
C392        N394   1.157       .  T
N393        C997   1.156       .  T
C397        C398   1.414       .  A
C397        C402   1.405       .  A
C398        C399   1.422       .  A
C398        C403   1.448       .  S
C399        C400   1.416       .  A
C399        C406   1.447       .  S
C400        C401   1.423       .  A
C401        C402   1.407       .  A
C401        C404   1.452       .  S
C402        C405   1.455       .  S
C403        N410   1.157       .  T
C404        N409   1.157       .  T
C405        N407   1.157       .  T
C406        N408   1.157       .  T
C411        C412   1.428       .  A
C411        C416   1.400       .  A
C412        C413   1.411       .  A
C412        C417   1.451       .  S
C413        C414   1.401       .  A
C413        C420   1.451       .  S
C414        C415   1.431       .  A
C415        C416   1.410       .  A
C415        C418   1.452       .  S
C416        C419   1.452       .  S
C417        N424   1.157       .  T
C418        N423   1.157       .  T
C419        N421   1.157       .  T
C420        N422   1.157       .  T
C425        C426   1.441       .  A
C425        C430   1.418       .  A
C426        C427   1.409       .  A
C426        C431   1.450       .  S
C427        C428   1.394       .  A
C427        C434   1.454       .  S
C428        C429   1.408       .  A
C429        C430   1.417       .  A
C429        C432   1.447       .  S
C430        C433   1.447       .  S
C431        N438   1.156       .  T
C432        N437   1.157       .  T
C433        N435   1.157       .  T
C434        N436   1.157       .  T
C439        C440   1.412       .  A
C439        C444   1.404       .  A
C440        C441   1.421       .  A
C440        C445   1.451       .  S
C441        C442   1.429       .  A
C441        C448   1.451       .  S
C442        C443   1.427       .  A
C443        C444   1.409       .  A
C443        C446   1.452       .  S
C444        C447   1.450       .  S
C445        N452   1.157       .  T
C446        N451   1.158       .  T
C447        N449   1.157       .  T
C448        N450   1.158       .  T
C453        C454   1.422       .  A
C453        C458   1.425       .  A
C454        C455   1.417       .  A
C454        C459   1.444       .  S
C455        C456   1.408       .  A
C455        C462   1.445       .  S
C456        C457   1.412       .  A
C457        C458   1.419       .  A
C457        C460   1.453       .  S
C458        C461   1.448       .  S
C459        N466   1.155       .  T
C460        N465   1.157       .  T
C461        N463   1.157       .  T
C462        N464   1.155       .  T
C467        C468   1.409       .  A
C467        C472   1.409       .  A
C468        C469   1.431       .  A
C468        C473   1.443       .  S
C469        C470   1.422       .  A
C469        C476   1.440       .  S
C470        C471   1.409       .  A
C471        C472   1.398       .  A
C471        C474   1.448       .  S
C472        C475   1.443       .  S
C473        N480   1.157       .  T
C474        N479   1.157       .  T
C475        N477   1.155       .  T
C476        N478   1.156       .  T
C481        C482   1.406       .  A
C481        C486   1.419       .  A
C482        C483   1.408       .  A
C482        C487   1.444       .  S
C483        C484   1.408       .  A
C483        C490   1.439       .  S
C484        C485   1.410       .  A
C485        C486   1.421       .  A
C485        C488   1.448       .  S
C486        C489   1.449       .  S
C487       N2918   1.155       .  T
C488        N493   1.157       .  T
C489        N491   1.157       .  T
C490       N2916   1.153       .  T
N492       C2914   1.153   1_455  T
N494       C2911   1.155   1_455  T
C495        C496   1.414       .  A
C495        C500   1.405       .  A
C496        C497   1.420       .  A
C496        C501   1.446       .  S
C497        C498   1.415       .  A
C497        C504   1.449       .  S
C498        C499   1.419       .  A
C499        C500   1.407       .  A
C499        C502   1.452       .  S
C500        C503   1.451       .  S
C501        N508   1.156       .  T
C502        N507   1.157       .  T
C503        N505   1.157       .  T
C504        N506   1.157       .  T
C509        C510   1.429       .  A
C509        C514   1.397       .  A
C510        C511   1.414       .  A
C510        C515   1.452       .  S
C511        C512   1.407       .  A
C511        C518   1.451       .  S
C512        C513   1.436       .  A
C513        C514   1.410       .  A
C513        C516   1.454       .  S
C514        C517   1.453       .  S
C515        N522   1.157       .  T
C516        N521   1.158       .  T
C517        N519   1.157       .  T
C518        N520   1.157       .  T
C523        C524   1.425       .  A
C523        C528   1.403       .  A
C524        C525   1.411       .  A
C524        C529   1.449       .  S
C525        C526   1.402       .  A
C525        C532   1.451       .  S
C526        C527   1.427       .  A
C527        C528   1.412       .  A
C527        C530   1.451       .  S
C528        C531   1.451       .  S
C529       N1142   1.156   1_554  T
C530        N535   1.157       .  T
C531        N533   1.157       .  T
C532       N1140   1.157       .  T
N534       C1138   1.157       .  T
N536       C1135   1.156       .  T
C537        C538   1.428       .  A
C537        C542   1.401       .  A
C538        C539   1.413       .  A
C538        C543   1.452       .  S
C539        C540   1.403       .  A
C539        C546   1.451       .  S
C540        C541   1.427       .  A
C541        C542   1.411       .  A
C541        C544   1.448       .  S
C542        C545   1.451       .  S
C543        N550   1.157       .  T
C544        N549   1.156       .  T
C545        N547   1.157       .  T
C546        N548   1.157       .  T
C551        C552   1.420       .  A
C551        C556   1.401       .  A
C552        C553   1.423       .  A
C552        C557   1.448       .  S
C553        C554   1.411       .  A
C553        C560   1.450       .  S
C554        C555   1.428       .  A
C555        C556   1.410       .  A
C555        C558   1.448       .  S
C556        C559   1.454       .  S
C557        N564   1.157       .  T
C558       N2987   1.156   1_455  T
C559       N2985   1.157   1_455  T
C560        N562   1.157       .  T
N561       C2983   1.157       .  T
N563       C2982   1.156       .  T
C565        C566   1.428       .  A
C565        C570   1.426       .  A
C566        C567   1.416       .  A
C566        C571   1.436       .  S
C567        C568   1.398       .  A
C567        C574   1.449       .  S
C568        C569   1.411       .  A
C569        C570   1.416       .  A
C569        C572   1.451       .  S
C570        C573   1.451       .  S
C571        N578   1.153       .  T
C572        N577   1.157       .  T
C573        N575   1.158       .  T
C574        N576   1.157       .  T
C579        C580   1.408       .  A
C579        C584   1.424       .  A
C580        C581   1.418       .  A
C580        C585   1.450       .  S
C581        C582   1.419       .  A
C581        C588   1.448       .  S
C582        C583   1.401       .  A
C583        C584   1.408       .  A
C583        C586   1.453       .  S
C584        C587   1.446       .  S
C585        N592   1.157       .  T
C586        N591   1.157   1_455  T
C587        N589   1.154   1_455  T
C588        N590   1.157       .  T
C593        C594   1.434       .  A
C593        C598   1.410       .  A
C594        C595   1.400       .  A
C594        C599   1.455       .  S
C595        C596   1.397       .  A
C595        C602   1.456       .  S
C596        C597   1.415       .  A
C597        C598   1.420       .  A
C597        C600   1.449       .  S
C598        C601   1.447       .  S
C599        N606   1.157       .  T
C600        N605   1.157       .  T
C601        N603   1.157       .  T
C602        N604   1.157       .  T
N607        N608   1.332       .  A
N607        N613   1.321       .  A
N608        C615   1.364       .  A
N609        N611   1.316       .  A
N609        N610   1.303       .  A
N610        C616   1.330       .  A
N611        N612   1.335       .  A
N611       Mn636   2.262       .  S
N612        C616   1.372       .  A
N613        N614   1.309       .  A
N613       Mn625   2.167       .  S
N614        C615   1.336       .  A
C615       C1146   1.493       .  S
C616       C1118   1.507       .  S
N617        N623   1.311       .  A
N617        N618   1.325       .  A
N618        C626   1.353       .  A
N619        N620   1.319       .  A
N619        N621   1.310       .  A
N619       Mn625   2.155       .  S
N620        C627   1.345       .  A
N621        N622   1.320       .  A
N621       Mn647   2.199       .  S
N622        C627   1.352       .  A
N623        N624   1.319       .  A
N624        C626   1.345       .  A
Mn625      Cl649   2.434       .  S
C626       C1188   1.486       .  S
C627       C1202   1.475       .  S
N628        N629   1.334       .  A
N628        N634   1.319       .  A
N628       Mn636   2.253       .  S
N629        C637   1.368       .  A
N630        N632   1.324       .  A
N630        N631   1.310       .  A
N631        C638   1.336       .  A
N632        N633   1.332       .  A
N633        C638   1.362       .  A
N634        N635   1.305       .  A
N634       Mn648   2.162   1_556  S
N635        C637   1.334       .  A
C637       C1104   1.491       .  S
C638       C1129   1.488       .  S
N639        N640   1.328       .  A
N639        N645   1.309       .  A
N639       Mn647   2.213       .  S
N640        C650   1.359       .  A
N641        N642   1.322       .  A
N641        N643   1.312       .  A
N641       Mn648   2.180   1_556  S
N642        C651   1.345       .  A
N643        N644   1.326       .  A
N644        C651   1.354       .  A
N645        N646   1.322       .  A
N646        C650   1.355       .  A
Mn647      Cl649   2.605       .  S
C650       C1171   1.522       .  S
C651       C1157   1.493       .  S
N652        N653   1.325       .  A
N652        N658   1.311       .  A
N652       Mn681   2.218       .  S
N653        C660   1.356       .  A
N654        N656   1.311       .  A
N654        N655   1.317       .  A
N655        C661   1.344       .  A
N656        N657   1.333       .  A
N657        C661   1.361       .  A
N658        N659   1.323       .  A
N658       Mn670   2.167       .  S
N659        C660   1.347       .  A
C660       C1087   1.499       .  S
C661       C1076   1.503       .  S
N662        N668   1.318       .  A
N662        N663   1.336       .  A
N663        C671   1.370       .  A
N664        N665   1.307       .  A
N664        N666   1.319       .  A
N664       Mn670   2.153       .  S
N665        C672   1.335       .  A
N666        N667   1.336       .  A
N666       Mn692   2.266       .  S
N667        C672   1.370       .  A
N668        N669   1.304       .  A
N669        C671   1.332       .  A
Mn670      Cl694   2.436       .  S
C671       C1031   1.517       .  S
C672       C1006   1.500       .  S
N673        N674   1.325       .  A
N673        N679   1.306       .  A
N674        C682   1.357       .  A
N675        N677   1.311       .  A
N675        N676   1.322       .  A
N675       Mn693   2.189       .  S
N676        C683   1.353       .  A
N677        N678   1.323       .  A
N677       Mn681   2.222       .  S
N678        C683   1.358       .  A
N679        N680   1.318       .  A
N680        C682   1.353       .  A
Mn681      Cl694   2.588       .  S
C682       C1048   1.517       .  S
C683       C1059   1.524       .  S
N684        N685   1.333       .  A
N684        N690   1.321       .  A
N684       Mn692   2.240       .  S
N685        C695   1.362       .  A
N686        N687   1.306       .  A
N686        N688   1.323       .  A
N687        C696   1.331       .  A
N688        N689   1.333       .  A
N689        C696   1.365       .  A
N690        N691   1.309       .  A
N690       Mn693   2.178       .  S
N691        C695   1.336       .  A
Mn692      Cl694   2.636       .  S
Mn693      Cl694   2.437       .  S
C695        C989   1.480       .  S
C696       C1020   1.491       .  S
N697        N698   1.332       .  A
N697        N703   1.324       .  A
N697       Mn726   2.270       .  S
N698        C705   1.364       .  A
N699        N701   1.320       .  A
N699        N700   1.308       .  A
N699       Mn715   2.164       .  S
N700        C706   1.334       .  A
N701        N702   1.333       .  A
N701       Mn726   2.244       .  S
N702        C706   1.363       .  A
N703        N704   1.309       .  A
N703       Mn715   2.158       .  S
N704        C705   1.333       .  A
C705       C1143   1.491       .  S
C706       C1003   1.481       .  S
N707        N713   1.310       .  A
N707        N708   1.325       .  A
N707      Mn1949   2.217       .  S
N708        C716   1.359       .  A
N709        N710   1.323       .  A
N709        N711   1.307       .  A
N709       Mn715   2.176       .  S
N710        C717   1.353       .  A
N711        N712   1.322       .  A
N711      Mn1949   2.221       .  S
N712        C717   1.360       .  A
N713        N714   1.319       .  A
N713       Mn715   2.173       .  S
N714        C716   1.348       .  A
Mn715     Cl1951   2.457       .  S
C716        C964   1.510       .  S
C717        C975   1.524       .  S
N718        N719   1.337       .  A
N718        N724   1.318       .  A
N718      Mn1938   2.269       .  S
N719        C727   1.372       .  A
N720        N722   1.323       .  A
N720        N721   1.311       .  A
N720       Mn738   2.168       .  S
N721        C728   1.336       .  A
N722        N723   1.331       .  A
N722      Mn1938   2.243       .  S
N723        C728   1.360       .  A
N724        N725   1.301       .  A
N724       Mn738   2.140       .  S
N725        C727   1.330       .  A
Mn726      N1930   2.269   1_545  S
Mn726      N1934   2.243   1_545  S
Mn726     Cl1951   2.609       .  S
C727        C992   1.500       .  S
C728       C1132   1.492       .  S
N729        N730   1.319       .  A
N729        N735   1.310       .  A
N729       Mn737   2.213       .  S
N730        C740   1.357       .  A
N731        N732   1.321       .  A
N731        N733   1.309       .  A
N731       Mn738   2.174       .  S
N732        C741   1.346       .  A
N733        N734   1.326       .  A
N733       Mn737   2.219       .  S
N734        C741   1.359       .  A
N735        N736   1.323       .  A
N735       Mn738   2.166       .  S
N736        C740   1.349       .  A
Mn737      N1919   2.217       .  S
Mn737      N1923   2.221       .  S
Mn737      Cl739   2.586       .  S
Mn738      Cl739   2.449       .  S
Cl739     Mn1927   2.457       .  S
Cl739     Mn1938   2.609       .  S
C740        C947   1.500       .  S
C741        C933   1.497       .  S
N742        N743   1.328       .  A
N742        N748   1.310       .  A
N742       Mn771   2.228       .  S
N743        C750   1.363       .  A
N744        N746   1.312       .  A
N744        N745   1.324       .  A
N744       Mn760   2.176       .  S
N745        C751   1.352       .  A
N746        N747   1.322       .  A
N746       Mn771   2.241       .  S
N747        C751   1.361       .  A
N748        N749   1.321       .  A
N748       Mn760   2.188       .  S
N749        C750   1.349       .  A
C750        C922   1.513       .  S
C751        C905   1.519       .  S
N752        N758   1.322       .  A
N752        N753   1.328       .  A
N752       Mn782   2.224   1_545  S
N753        C761   1.356       .  A
N754        N755   1.303       .  A
N754        N756   1.320       .  A
N754       Mn760   2.127       .  S
N755        C762   1.326       .  A
N756        N757   1.335       .  A
N756       Mn782   2.281   1_545  S
N757        C762   1.370       .  A
N758        N759   1.314       .  A
N758       Mn760   2.196       .  S
N759        C761   1.342       .  A
Mn760      Cl784   2.466   1_545  S
C761       C1034   1.478       .  S
C762       C1115   1.484       .  S
N763        N764   1.326       .  A
N763        N769   1.311       .  A
N763      Mn1983   2.223       .  S
N764        C772   1.358       .  A
N765        N767   1.312       .  A
N765        N766   1.322       .  A
N765       Mn783   2.156       .  S
N766        C773   1.344       .  A
N767        N768   1.325       .  A
N767      Mn1983   2.255       .  S
N768        C773   1.363       .  A
N769        N770   1.319       .  A
N769       Mn783   2.165       .  S
N770        C772   1.346       .  A
Mn771      N1975   2.223   1_545  S
Mn771      N1979   2.255   1_545  S
Mn771      Cl784   2.566   1_545  S
C772        C877   1.488       .  S
C773        C891   1.502       .  S
N774        N775   1.334       .  A
N774        N780   1.319       .  A
N774      Mn1994   2.246       .  S
N775        C785   1.365       .  A
N776        N777   1.308       .  A
N776        N778   1.321       .  A
N776       Mn783   2.152       .  S
N777        C786   1.333       .  A
N778        N779   1.332       .  A
N778      Mn1994   2.260       .  S
N779        C786   1.364       .  A
N780        N781   1.307       .  A
N780       Mn783   2.161       .  S
N781        C785   1.333       .  A
Mn782      N1986   2.246       .  S
Mn782      N1990   2.260       .  S
Mn782      Cl784   2.620       .  S
Mn783     Cl1996   2.462       .  S
Cl784     Mn1995   2.462       .  S
C785       C1101   1.480       .  S
C786       C1017   1.488       .  S
N787        N788   1.335       .  A
N787        N793   1.315       .  A
N787      Mn3240   2.283   1_455  S
N788        C795   1.373       .  A
N789        N791   1.318       .  A
N789        N790   1.316       .  A
N789      Mn3229   2.206       .  S
N790        C796   1.345       .  A
N791        N792   1.332       .  A
N791       Mn816   2.238       .  S
N792        C796   1.363       .  A
N793        N794   1.304       .  A
N793       Mn805   2.163       .  S
N794        C795   1.331       .  A
C795       C1199   1.498       .  S
C796       C1090   1.494       .  S
N797        N803   1.313       .  A
N797        N798   1.318       .  A
N797      Mn3251   2.217       .  S
N798        C806   1.358       .  A
N799        N800   1.321       .  A
N799        N801   1.306       .  A
N799       Mn805   2.177       .  S
N800        C807   1.351       .  A
N801        N802   1.324       .  A
N801       Mn827   2.218   1_455  S
N802        C807   1.363       .  A
N803        N804   1.322       .  A
N803      Mn3229   2.184       .  S
N804        C806   1.352       .  A
Mn805      N3213   2.206   1_455  S
Mn805      N3227   2.184   1_455  S
Mn805      Cl829   2.446   1_455  S
C806        C961   1.501       .  S
C807        C978   1.525       .  S
N808        N809   1.339       .  A
N808        N814   1.319       .  A
N808       Mn816   2.270       .  S
N809        C817   1.371       .  A
N810        N812   1.319       .  A
N810        N811   1.311       .  A
N810       Mn828   2.175   1_455  S
N811        C818   1.338       .  A
N812        N813   1.333       .  A
N812      Mn3240   2.250   1_455  S
N813        C818   1.364       .  A
N814        N815   1.304       .  A
N814      Mn3252   2.182       .  S
N815        C817   1.340       .  A
Mn816      N3211   2.283       .  S
Mn816      N3236   2.250       .  S
Mn816     Cl3253   2.648       .  S
C817       C1073   1.509       .  S
C818       C1185   1.494       .  S
N819        N820   1.321       .  A
N819        N825   1.313       .  A
N819       Mn827   2.217   1_455  S
N820        C830   1.357       .  A
N821        N822   1.322       .  A
N821        N823   1.310       .  A
N821      Mn3252   2.193       .  S
N822        C831   1.354       .  A
N823        N824   1.325       .  A
N823      Mn3251   2.219       .  S
N824        C831   1.361       .  A
N825        N826   1.324       .  A
N825       Mn828   2.185   1_455  S
N826        C830   1.350       .  A
Mn827      N3221   2.217       .  S
Mn827      N3247   2.219       .  S
Mn827      Cl829   2.588       .  S
Mn828      N3238   2.182       .  S
Mn828      N3245   2.193       .  S
Mn828      Cl829   2.445       .  S
Cl829     Mn3240   2.648       .  S
C830        C919   1.498       .  S
C831        C908   1.512       .  S
N832        N833   1.326       .  A
N832        N838   1.310       .  A
N832      Mn3285   2.228       .  S
N833        C840   1.362       .  A
N834        N836   1.314       .  A
N834        N835   1.323       .  A
N834       Mn850   2.187       .  S
N835        C841   1.349       .  A
N836        N837   1.326       .  A
N836       Mn861   2.245       .  S
N837        C841   1.361       .  A
N838        N839   1.320       .  A
N838      Mn3274   2.181       .  S
N839        C840   1.351       .  A
C840        C950   1.508       .  S
C841        C936   1.500       .  S
N842        N848   1.319       .  A
N842        N843   1.334       .  A
N842       Mn872   2.277       .  S
N843        C851   1.369       .  A
N844        N845   1.310       .  A
N844        N846   1.320       .  A
N844      Mn3274   2.166       .  S
N845        C852   1.339       .  A
N846        N847   1.331       .  A
N846      Mn3296   2.267       .  S
N847        C852   1.368       .  A
N848        N849   1.311       .  A
N848       Mn850   2.164       .  S
N849        C851   1.339       .  A
Mn850      N3262   2.181       .  S
Mn850      N3268   2.166       .  S
Mn850      Cl874   2.484       .  S
C851       C1062   1.495       .  S
C852       C1174   1.494       .  S
N853        N854   1.326       .  A
N853        N859   1.311       .  A
N853       Mn861   2.221       .  S
N854        C862   1.358       .  A
N855        N857   1.313       .  A
N855        N856   1.323       .  A
N855      Mn3297   2.169   1_455  S
N856        C863   1.345       .  A
N857        N858   1.325       .  A
N857      Mn3285   2.251       .  S
N858        C863   1.362       .  A
N859        N860   1.318       .  A
N859       Mn873   2.172       .  S
N860        C862   1.348       .  A
Mn861      N3256   2.228       .  S
Mn861      N3281   2.251       .  S
Mn861      Cl874   2.574       .  S
C862        C880   1.492       .  S
C863        C894   1.504       .  S
N864        N865   1.337       .  A
N864        N870   1.318       .  A
N864      Mn3296   2.277       .  S
N865        C875   1.370       .  A
N866        N867   1.311       .  A
N866        N868   1.320       .  A
N866       Mn873   2.190       .  S
N867        C876   1.340       .  A
N868        N869   1.332       .  A
N868       Mn872   2.240       .  S
N869        C876   1.363       .  A
N870        N871   1.309       .  A
N870      Mn3297   2.162   1_455  S
N871        C875   1.334       .  A
Mn872      N3270   2.267       .  S
Mn872      N3288   2.277       .  S
Mn872      Cl874   2.626       .  S
Mn873      N3279   2.169       .  S
Mn873      N3294   2.162       .  S
Mn873      Cl874   2.464       .  S
C875       C1160   1.502       .  S
C876       C1045   1.488       .  S
C877        C878   1.409       .  A
C877        C882   1.413       .  A
C878        C879   1.411       .  A
C878        C883   1.451       .  S
C879        C880   1.416       .  A
C879        C886   1.446       .  S
C880        C881   1.409       .  A
C881        C882   1.415       .  A
C881        C884   1.449       .  S
C882        C885   1.446       .  S
C883        N890   1.157       .  T
C884       N2101   1.157       .  T
C885       N2099   1.156       .  T
C886        N888   1.156       .  T
N887       C2097   1.156   1_545  T
N889       C2096   1.157   1_545  T
C891        C892   1.412       .  A
C891        C896   1.417       .  A
C892        C893   1.420       .  A
C892        C897   1.449       .  S
C893        C894   1.417       .  A
C893        C900   1.451       .  S
C894        C895   1.413       .  A
C895        C896   1.419       .  A
C895        C898   1.448       .  S
C896        C899   1.451       .  S
C897        N904   1.157       .  T
C898        N903   1.157       .  T
C899        N901   1.157       .  T
C900        N902   1.157       .  T
C905        C906   1.411       .  A
C905        C910   1.422       .  A
C906        C907   1.410       .  A
C906        C911   1.438       .  S
C907        C908   1.409       .  A
C907        C914   1.441       .  S
C908        C909   1.415       .  A
C909        C910   1.422       .  A
C909        C912   1.451       .  S
C910        C913   1.447       .  S
C911        N918   1.153       .  T
C912        N917   1.158       .  T
C913        N915   1.157       .  T
C914        N916   1.155       .  T
C919        C920   1.402       .  A
C919        C924   1.417       .  A
C920        C921   1.408       .  A
C920        C925   1.450       .  S
C921        C922   1.413       .  A
C921        C928   1.429       .  S
C922        C923   1.421       .  A
C923        C924   1.423       .  A
C923        C926   1.450       .  S
C924        C927   1.449       .  S
C925        N932   1.156   1_545  T
C926        N931   1.157       .  T
C927        N929   1.157       .  T
C928       N2142   1.150   1_545  T
N930       C2140   1.150       .  T
C933        C934   1.417       .  A
C933        C938   1.409       .  A
C934        C935   1.419       .  A
C934        C939   1.450       .  S
C935        C936   1.412       .  A
C935        C942   1.449       .  S
C936        C937   1.410       .  A
C937        C938   1.415       .  A
C937        C940   1.443       .  S
C938        C941   1.447       .  S
C939        N946   1.157       .  T
C940        N945   1.155       .  T
C941        N943   1.156       .  T
C942        N944   1.157       .  T
C947        C948   1.404       .  A
C947        C952   1.417       .  A
C948        C949   1.405       .  A
C948        C953   1.445       .  S
C949        C950   1.413       .  A
C949        C956   1.433       .  S
C950        C951   1.421       .  A
C951        C952   1.422       .  A
C951        C954   1.451       .  S
C952        C955   1.450       .  S
C953        N960   1.154       .  T
C954        N959   1.157       .  T
C955        N957   1.157       .  T
C956        N958   1.151       .  T
C961        C962   1.413       .  A
C961        C966   1.403       .  A
C962        C963   1.419       .  A
C962        C967   1.448       .  S
C963        C964   1.426       .  A
C963        C970   1.452       .  S
C964        C965   1.419       .  A
C965        C966   1.407       .  A
C965        C968   1.442       .  S
C966        C969   1.446       .  S
C967        N974   1.156       .  T
C968        N973   1.156   1_545  T
C969        N971   1.155       .  T
C970        N972   1.158       .  T
C975        C976   1.424       .  A
C975        C980   1.417       .  A
C976        C977   1.424       .  A
C976        C981   1.451       .  S
C977        C978   1.423       .  A
C977        C984   1.452       .  S
C978        C979   1.416       .  A
C979        C980   1.415       .  A
C979        C982   1.438       .  S
C980        C983   1.445       .  S
C981        N988   1.158       .  T
C982        N987   1.153       .  T
C983        N985   1.155       .  T
C984        N986   1.158       .  T
C989        C990   1.400       .  A
C989        C994   1.414       .  A
C990        C991   1.407       .  A
C990        C995   1.452       .  S
C991        C992   1.426       .  A
C991        C998   1.454       .  S
C992        C993   1.415       .  A
C993        C994   1.421       .  A
C993        C996   1.448       .  S
C994        C997   1.445       .  S
C995       N1002   1.157       .  T
C996       N1001   1.157       .  T
C998       N1000   1.157       .  T
C1003      C1004   1.414       .  A
C1003      C1008   1.405       .  A
C1004      C1005   1.422       .  A
C1004      C1009   1.448       .  S
C1005      C1006   1.416       .  A
C1005      C1012   1.447       .  S
C1006      C1007   1.423       .  A
C1007      C1008   1.407       .  A
C1007      C1010   1.452       .  S
C1008      C1011   1.455       .  S
C1009      N1016   1.157       .  T
C1010      N1015   1.157       .  T
C1011      N1013   1.157       .  T
C1012      N1014   1.157       .  T
C1017      C1018   1.428       .  A
C1017      C1022   1.400       .  A
C1018      C1019   1.411       .  A
C1018      C1023   1.451       .  S
C1019      C1020   1.401       .  A
C1019      C1026   1.451       .  S
C1020      C1021   1.431       .  A
C1021      C1022   1.410       .  A
C1021      C1024   1.452       .  S
C1022      C1025   1.452       .  S
C1023      N1030   1.157       .  T
C1024      N1029   1.157   1_556  T
C1025      N1027   1.157       .  T
C1026      N1028   1.157       .  T
C1031      C1032   1.441       .  A
C1031      C1036   1.418       .  A
C1032      C1033   1.409       .  A
C1032      C1037   1.450       .  S
C1033      C1034   1.394       .  A
C1033      C1040   1.454       .  S
C1034      C1035   1.408       .  A
C1035      C1036   1.417       .  A
C1035      C1038   1.447       .  S
C1036      C1039   1.447       .  S
C1037      N1044   1.156       .  T
C1038      N1043   1.157       .  T
C1039      N1041   1.157       .  T
C1040      N1042   1.157       .  T
C1045      C1046   1.412       .  A
C1045      C1050   1.404       .  A
C1046      C1047   1.421       .  A
C1046      C1051   1.451       .  S
C1047      C1048   1.429       .  A
C1047      C1054   1.451       .  S
C1048      C1049   1.427       .  A
C1049      C1050   1.409       .  A
C1049      C1052   1.452       .  S
C1050      C1053   1.450       .  S
C1051      N1058   1.157       .  T
C1052      N1057   1.158       .  T
C1053      N1055   1.157       .  T
C1054      N1056   1.158       .  T
C1059      C1060   1.422       .  A
C1059      C1064   1.425       .  A
C1060      C1061   1.417       .  A
C1060      C1065   1.444       .  S
C1061      C1062   1.408       .  A
C1061      C1068   1.445       .  S
C1062      C1063   1.412       .  A
C1063      C1064   1.419       .  A
C1063      C1066   1.453       .  S
C1064      C1067   1.448       .  S
C1065      N1072   1.155       .  T
C1066      N1071   1.157       .  T
C1067      N1069   1.157       .  T
C1068      N1070   1.155       .  T
C1073      C1074   1.409       .  A
C1073      C1078   1.409       .  A
C1074      C1075   1.431       .  A
C1074      C1079   1.443       .  S
C1075      C1076   1.422       .  A
C1075      C1082   1.440       .  S
C1076      C1077   1.409       .  A
C1077      C1078   1.398       .  A
C1077      C1080   1.448       .  S
C1078      C1081   1.443       .  S
C1079      N1086   1.157       .  T
C1080      N1085   1.157       .  T
C1081      N1083   1.155       .  T
C1082      N1084   1.156       .  T
C1087      C1088   1.406       .  A
C1087      C1092   1.419       .  A
C1088      C1089   1.408       .  A
C1088      C1093   1.444       .  S
C1089      C1090   1.408       .  A
C1089      C1096   1.439       .  S
C1090      C1091   1.410       .  A
C1091      C1092   1.421       .  A
C1091      C1094   1.448       .  S
C1092      C1095   1.449       .  S
C1093      N3524   1.155       .  T
C1094      N1099   1.157       .  T
C1095      N1097   1.157       .  T
C1096      N3522   1.153       .  T
N1098      C3520   1.153   1_455  T
N1100      C3517   1.155   1_455  T
C1101      C1102   1.414       .  A
C1101      C1106   1.405       .  A
C1102      C1103   1.420       .  A
C1102      C1107   1.446       .  S
C1103      C1104   1.415       .  A
C1103      C1110   1.449       .  S
C1104      C1105   1.419       .  A
C1105      C1106   1.407       .  A
C1105      C1108   1.452       .  S
C1106      C1109   1.451       .  S
C1107      N1114   1.156       .  T
C1108      N1113   1.157       .  T
C1109      N1111   1.157       .  T
C1110      N1112   1.157       .  T
C1115      C1116   1.429       .  A
C1115      C1120   1.397       .  A
C1116      C1117   1.414       .  A
C1116      C1121   1.452       .  S
C1117      C1118   1.407       .  A
C1117      C1124   1.451       .  S
C1118      C1119   1.436       .  A
C1119      C1120   1.410       .  A
C1119      C1122   1.454       .  S
C1120      C1123   1.453       .  S
C1121      N1128   1.157       .  T
C1122      N1127   1.158       .  T
C1123      N1125   1.157       .  T
C1124      N1126   1.157       .  T
C1129      C1130   1.425       .  A
C1129      C1134   1.403       .  A
C1130      C1131   1.411       .  A
C1130      C1135   1.449       .  S
C1131      C1132   1.402       .  A
C1131      C1138   1.451       .  S
C1132      C1133   1.427       .  A
C1133      C1134   1.412       .  A
C1133      C1136   1.451       .  S
C1134      C1137   1.451       .  S
C1136      N1141   1.157       .  T
C1137      N1139   1.157       .  T
C1143      C1144   1.428       .  A
C1143      C1148   1.401       .  A
C1144      C1145   1.413       .  A
C1144      C1149   1.452       .  S
C1145      C1146   1.403       .  A
C1145      C1152   1.451       .  S
C1146      C1147   1.427       .  A
C1147      C1148   1.411       .  A
C1147      C1150   1.448       .  S
C1148      C1151   1.451       .  S
C1149      N1156   1.157       .  T
C1150      N1155   1.156       .  T
C1151      N1153   1.157       .  T
C1152      N1154   1.157       .  T
C1157      C1158   1.420       .  A
C1157      C1162   1.401       .  A
C1158      C1159   1.423       .  A
C1158      C1163   1.448       .  S
C1159      C1160   1.411       .  A
C1159      C1166   1.450       .  S
C1160      C1161   1.428       .  A
C1161      C1162   1.410       .  A
C1161      C1164   1.448       .  S
C1162      C1165   1.454       .  S
C1163      N1170   1.157       .  T
C1164      N3593   1.156   1_455  T
C1165      N3591   1.157   1_455  T
C1166      N1168   1.157       .  T
N1167      C3589   1.157       .  T
N1169      C3588   1.156       .  T
C1171      C1172   1.428       .  A
C1171      C1176   1.426       .  A
C1172      C1173   1.416       .  A
C1172      C1177   1.436       .  S
C1173      C1174   1.398       .  A
C1173      C1180   1.449       .  S
C1174      C1175   1.411       .  A
C1175      C1176   1.416       .  A
C1175      C1178   1.451       .  S
C1176      C1179   1.451       .  S
C1177      N1184   1.153       .  T
C1178      N1183   1.157       .  T
C1179      N1181   1.158       .  T
C1180      N1182   1.157       .  T
C1185      C1186   1.408       .  A
C1185      C1190   1.424       .  A
C1186      C1187   1.418       .  A
C1186      C1191   1.450       .  S
C1187      C1188   1.419       .  A
C1187      C1194   1.448       .  S
C1188      C1189   1.401       .  A
C1189      C1190   1.408       .  A
C1189      C1192   1.453       .  S
C1190      C1193   1.446       .  S
C1191      N1198   1.157       .  T
C1192      N1197   1.157   1_455  T
C1193      N1195   1.154   1_455  T
C1194      N1196   1.157       .  T
C1199      C1200   1.434       .  A
C1199      C1204   1.410       .  A
C1200      C1201   1.400       .  A
C1200      C1205   1.455       .  S
C1201      C1202   1.397       .  A
C1201      C1208   1.456       .  S
C1202      C1203   1.415       .  A
C1203      C1204   1.420       .  A
C1203      C1206   1.449       .  S
C1204      C1207   1.447       .  S
C1205      N1212   1.157       .  T
C1206      N1211   1.157       .  T
C1207      N1209   1.157       .  T
C1208      N1210   1.157       .  T
N1213      N1214   1.332       .  A
N1213      N1219   1.321       .  A
N1213     Mn1848   2.254   1_554  S
N1214      C1221   1.364       .  A
N1215      N1217   1.316       .  A
N1215      N1216   1.303       .  A
N1215     Mn1837   2.140       .  S
N1216      C1222   1.330       .  A
N1217      N1218   1.335       .  A
N1217     Mn1242   2.262       .  S
N1218      C1222   1.372       .  A
N1219      N1220   1.309       .  A
N1219     Mn1231   2.167       .  S
N1220      C1221   1.336       .  A
C1221      C1752   1.493       .  S
C1222      C1724   1.507       .  S
N1223      N1229   1.311       .  A
N1223      N1224   1.325       .  A
N1223     Mn1859   2.207       .  S
N1224      C1232   1.353       .  A
N1225      N1226   1.319       .  A
N1225      N1227   1.310       .  A
N1225     Mn1231   2.155       .  S
N1226      C1233   1.345       .  A
N1227      N1228   1.320       .  A
N1227     Mn1253   2.199       .  S
N1228      C1233   1.352       .  A
N1229      N1230   1.319       .  A
N1229     Mn1837   2.170       .  S
N1230      C1232   1.345       .  A
Mn1231     N1821   2.140   1_554  S
Mn1231     N1835   2.170   1_554  S
Mn1231    Cl1255   2.434       .  S
C1232      C1794   1.486       .  S
C1233      C1808   1.475       .  S
N1234      N1235   1.334       .  A
N1234      N1240   1.319       .  A
N1234     Mn1242   2.253       .  S
N1235      C1243   1.368       .  A
N1236      N1238   1.324       .  A
N1236      N1237   1.310       .  A
N1236     Mn1860   2.167       .  S
N1237      C1244   1.336       .  A
N1238      N1239   1.332       .  A
N1238     Mn1848   2.259   1_554  S
N1239      C1244   1.362       .  A
N1240      N1241   1.305       .  A
N1240     Mn1254   2.162       .  S
N1241      C1243   1.334       .  A
Mn1242     N1819   2.254       .  S
Mn1242     N1844   2.259       .  S
Mn1242    Cl1861   2.616       .  S
C1243      C1710   1.491       .  S
C1244      C1735   1.488       .  S
N1245      N1246   1.328       .  A
N1245      N1251   1.309       .  A
N1245     Mn1253   2.213       .  S
N1246      C1256   1.359       .  A
N1247      N1248   1.322       .  A
N1247      N1249   1.312       .  A
N1247     Mn1254   2.180       .  S
N1248      C1257   1.345       .  A
N1249      N1250   1.326       .  A
N1249     Mn1859   2.210       .  S
N1250      C1257   1.354       .  A
N1251      N1252   1.322       .  A
N1251     Mn1860   2.202       .  S
N1252      C1256   1.355       .  A
Mn1253     N1829   2.207   1_554  S
Mn1253     N1855   2.210   1_554  S
Mn1253    Cl1255   2.605       .  S
Mn1254     N1842   2.167       .  S
Mn1254     N1857   2.202       .  S
Mn1254    Cl1861   2.433       .  S
Cl1255    Mn1848   2.616   1_554  S
Cl1255    Mn1860   2.433       .  S
C1256      C1777   1.522       .  S
C1257      C1763   1.493       .  S
N1258      N1259   1.325       .  A
N1258      N1264   1.311       .  A
N1258     Mn1287   2.218       .  S
N1259      C1266   1.356       .  A
N1260      N1262   1.311       .  A
N1260      N1261   1.317       .  A
N1260     Mn1882   2.169       .  S
N1261      C1267   1.344       .  A
N1262      N1263   1.333       .  A
N1262     Mn1893   2.232       .  S
N1263      C1267   1.361       .  A
N1264      N1265   1.323       .  A
N1264     Mn1276   2.167       .  S
N1265      C1266   1.347       .  A
C1266      C1693   1.499       .  S
C1267      C1682   1.503       .  S
N1268      N1274   1.318       .  A
N1268      N1269   1.336       .  A
N1268     Mn1904   2.264       .  S
N1269      C1277   1.370       .  A
N1270      N1271   1.307       .  A
N1270      N1272   1.319       .  A
N1270     Mn1276   2.153       .  S
N1271      C1278   1.335       .  A
N1272      N1273   1.336       .  A
N1272     Mn1298   2.266       .  S
N1273      C1278   1.370       .  A
N1274      N1275   1.304       .  A
N1274     Mn1882   2.157       .  S
N1275      C1277   1.332       .  A
Mn1276     N1866   2.169   1_554  S
Mn1276     N1880   2.157   1_554  S
Mn1276    Cl1300   2.436       .  S
C1277      C1637   1.517       .  S
C1278      C1612   1.500       .  S
N1279      N1280   1.325       .  A
N1279      N1285   1.306       .  A
N1279     Mn1893   2.190       .  S
N1280      C1288   1.357       .  A
N1281      N1283   1.311       .  A
N1281      N1282   1.322       .  A
N1281     Mn1299   2.189       .  S
N1282      C1289   1.353       .  A
N1283      N1284   1.323       .  A
N1283     Mn1287   2.222       .  S
N1284      C1289   1.358       .  A
N1285      N1286   1.318       .  A
N1285     Mn1905   2.192       .  S
N1286      C1288   1.353       .  A
Mn1287     N1868   2.232   1_554  S
Mn1287     N1885   2.190   1_554  S
Mn1287    Cl1300   2.588       .  S
C1288      C1654   1.517       .  S
C1289      C1665   1.524       .  S
N1290      N1291   1.333       .  A
N1290      N1296   1.321       .  A
N1290     Mn1298   2.240       .  S
N1291      C1301   1.362       .  A
N1292      N1293   1.306       .  A
N1292      N1294   1.323       .  A
N1292     Mn1905   2.159       .  S
N1293      C1302   1.331       .  A
N1294      N1295   1.333       .  A
N1294     Mn1904   2.273       .  S
N1295      C1302   1.365       .  A
N1296      N1297   1.309       .  A
N1296     Mn1299   2.178       .  S
N1297      C1301   1.336       .  A
Mn1298     N1874   2.264   1_554  S
Mn1298     N1900   2.273   1_554  S
Mn1298    Cl1300   2.636       .  S
Mn1299     N1891   2.192   1_554  S
Mn1299     N1898   2.159   1_554  S
Mn1299    Cl1300   2.437       .  S
C1301      C1595   1.480       .  S
C1302      C1626   1.491       .  S
N1303      N1304   1.332       .  A
N1303      N1309   1.324       .  A
N1303     Mn1332   2.270       .  S
N1304      C1311   1.364       .  A
N1305      N1307   1.320       .  A
N1305      N1306   1.308       .  A
N1305     Mn1321   2.164       .  S
N1306      C1312   1.334       .  A
N1307      N1308   1.333       .  A
N1307     Mn1332   2.244       .  S
N1308      C1312   1.363       .  A
N1309      N1310   1.309       .  A
N1309     Mn1321   2.158       .  S
N1310      C1311   1.333       .  A
C1311      C1749   1.491       .  S
C1312      C1609   1.481       .  S
N1313      N1319   1.310       .  A
N1313      N1314   1.325       .  A
N1314      C1322   1.359       .  A
N1315      N1316   1.323       .  A
N1315      N1317   1.307       .  A
N1315     Mn1321   2.176       .  S
N1316      C1323   1.353       .  A
N1317      N1318   1.322       .  A
N1318      C1323   1.360       .  A
N1319      N1320   1.319       .  A
N1319     Mn1321   2.173       .  S
N1320      C1322   1.348       .  A
C1322      C1570   1.510       .  S
C1323      C1581   1.524       .  S
N1324      N1325   1.337       .  A
N1324      N1330   1.318       .  A
N1325      C1333   1.372       .  A
N1326      N1328   1.323       .  A
N1326      N1327   1.311       .  A
N1326     Mn1344   2.168       .  S
N1327      C1334   1.336       .  A
N1328      N1329   1.331       .  A
N1329      C1334   1.360       .  A
N1330      N1331   1.301       .  A
N1330     Mn1344   2.140       .  S
N1331      C1333   1.330       .  A
C1333      C1598   1.500       .  S
C1334      C1738   1.492       .  S
N1335      N1336   1.319       .  A
N1335      N1341   1.310       .  A
N1335     Mn1343   2.213   1_565  S
N1336      C1346   1.357       .  A
N1337      N1338   1.321       .  A
N1337      N1339   1.309       .  A
N1337     Mn1344   2.174       .  S
N1338      C1347   1.346       .  A
N1339      N1340   1.326       .  A
N1339     Mn1343   2.219   1_565  S
N1340      C1347   1.359       .  A
N1341      N1342   1.323       .  A
N1341     Mn1344   2.166       .  S
N1342      C1346   1.349       .  A
Mn1343    Cl1345   2.586       .  S
Mn1344    Cl1345   2.449   1_565  S
C1346      C1553   1.500       .  S
C1347      C1539   1.497       .  S
N1348      N1349   1.328       .  A
N1348      N1354   1.310       .  A
N1348     Mn1377   2.228       .  S
N1349      C1356   1.363       .  A
N1350      N1352   1.312       .  A
N1350      N1351   1.324       .  A
N1350     Mn1366   2.176       .  S
N1351      C1357   1.352       .  A
N1352      N1353   1.322       .  A
N1352     Mn1377   2.241       .  S
N1353      C1357   1.361       .  A
N1354      N1355   1.321       .  A
N1354     Mn1366   2.188       .  S
N1355      C1356   1.349       .  A
C1356      C1528   1.513       .  S
C1357      C1511   1.519       .  S
N1358      N1364   1.322       .  A
N1358      N1359   1.328       .  A
N1358     Mn1388   2.224       .  S
N1359      C1367   1.356       .  A
N1360      N1361   1.303       .  A
N1360      N1362   1.320       .  A
N1360     Mn1366   2.127       .  S
N1361      C1368   1.326       .  A
N1362      N1363   1.335       .  A
N1362     Mn1388   2.281       .  S
N1363      C1368   1.370       .  A
N1364      N1365   1.314       .  A
N1364     Mn1366   2.196       .  S
N1365      C1367   1.342       .  A
Mn1366    Cl1390   2.466       .  S
C1367      C1640   1.478       .  S
C1368      C1721   1.484       .  S
N1369      N1370   1.326       .  A
N1369      N1375   1.311       .  A
N1370      C1378   1.358       .  A
N1371      N1373   1.312       .  A
N1371      N1372   1.322       .  A
N1371     Mn1389   2.156       .  S
N1372      C1379   1.344       .  A
N1373      N1374   1.325       .  A
N1374      C1379   1.363       .  A
N1375      N1376   1.319       .  A
N1375     Mn1389   2.165       .  S
N1376      C1378   1.346       .  A
Mn1377    Cl1390   2.566       .  S
C1378      C1483   1.488       .  S
C1379      C1497   1.502       .  S
N1380      N1381   1.334       .  A
N1380      N1386   1.319       .  A
N1381      C1391   1.365       .  A
N1382      N1383   1.308       .  A
N1382      N1384   1.321       .  A
N1382     Mn1389   2.152       .  S
N1383      C1392   1.333       .  A
N1384      N1385   1.332       .  A
N1385      C1392   1.364       .  A
N1386      N1387   1.307       .  A
N1386     Mn1389   2.161       .  S
N1387      C1391   1.333       .  A
Mn1388    Cl1390   2.620       .  S
C1391      C1707   1.480       .  S
C1392      C1623   1.488       .  S
N1393      N1394   1.335       .  A
N1393      N1399   1.315       .  A
N1393     Mn3846   2.283   1_455  S
N1394      C1401   1.373       .  A
N1395      N1397   1.318       .  A
N1395      N1396   1.316       .  A
N1395     Mn3835   2.206       .  S
N1396      C1402   1.345       .  A
N1397      N1398   1.332       .  A
N1397     Mn1422   2.238       .  S
N1398      C1402   1.363       .  A
N1399      N1400   1.304       .  A
N1399     Mn1411   2.163       .  S
N1400      C1401   1.331       .  A
C1401      C1805   1.498       .  S
C1402      C1696   1.494       .  S
N1403      N1409   1.313       .  A
N1403      N1404   1.318       .  A
N1403     Mn3857   2.217       .  S
N1404      C1412   1.358       .  A
N1405      N1406   1.321       .  A
N1405      N1407   1.306       .  A
N1405     Mn1411   2.177       .  S
N1406      C1413   1.351       .  A
N1407      N1408   1.324       .  A
N1407     Mn1433   2.218   1_455  S
N1408      C1413   1.363       .  A
N1409      N1410   1.322       .  A
N1409     Mn3835   2.184       .  S
N1410      C1412   1.352       .  A
Mn1411     N3819   2.206   1_455  S
Mn1411     N3833   2.184   1_455  S
Mn1411    Cl1435   2.446   1_455  S
C1412      C1567   1.501       .  S
C1413      C1584   1.525       .  S
N1414      N1415   1.339       .  A
N1414      N1420   1.319       .  A
N1414     Mn1422   2.270       .  S
N1415      C1423   1.371       .  A
N1416      N1418   1.319       .  A
N1416      N1417   1.311       .  A
N1416     Mn1434   2.175   1_455  S
N1417      C1424   1.338       .  A
N1418      N1419   1.333       .  A
N1418     Mn3846   2.250   1_455  S
N1419      C1424   1.364       .  A
N1420      N1421   1.304       .  A
N1420     Mn3858   2.182       .  S
N1421      C1423   1.340       .  A
Mn1422     N3817   2.283       .  S
Mn1422     N3842   2.250       .  S
Mn1422    Cl3859   2.648       .  S
C1423      C1679   1.509       .  S
C1424      C1791   1.494       .  S
N1425      N1426   1.321       .  A
N1425      N1431   1.313       .  A
N1425     Mn1433   2.217   1_455  S
N1426      C1436   1.357       .  A
N1427      N1428   1.322       .  A
N1427      N1429   1.310       .  A
N1427     Mn3858   2.193       .  S
N1428      C1437   1.354       .  A
N1429      N1430   1.325       .  A
N1429     Mn3857   2.219       .  S
N1430      C1437   1.361       .  A
N1431      N1432   1.324       .  A
N1431     Mn1434   2.185   1_455  S
N1432      C1436   1.350       .  A
Mn1433     N3827   2.217       .  S
Mn1433     N3853   2.219       .  S
Mn1433    Cl1435   2.588       .  S
Mn1434     N3844   2.182       .  S
Mn1434     N3851   2.193       .  S
Mn1434    Cl1435   2.445       .  S
Cl1435    Mn3846   2.648       .  S
C1436      C1525   1.498       .  S
C1437      C1514   1.512       .  S
N1438      N1439   1.326       .  A
N1438      N1444   1.310       .  A
N1438     Mn3891   2.228       .  S
N1439      C1446   1.362       .  A
N1440      N1442   1.314       .  A
N1440      N1441   1.323       .  A
N1440     Mn1456   2.187       .  S
N1441      C1447   1.349       .  A
N1442      N1443   1.326       .  A
N1442     Mn1467   2.245       .  S
N1443      C1447   1.361       .  A
N1444      N1445   1.320       .  A
N1444     Mn3880   2.181       .  S
N1445      C1446   1.351       .  A
C1446      C1556   1.508       .  S
C1447      C1542   1.500       .  S
N1448      N1454   1.319       .  A
N1448      N1449   1.334       .  A
N1448     Mn1478   2.277       .  S
N1449      C1457   1.369       .  A
N1450      N1451   1.310       .  A
N1450      N1452   1.320       .  A
N1450     Mn3880   2.166       .  S
N1451      C1458   1.339       .  A
N1452      N1453   1.331       .  A
N1452     Mn3902   2.267       .  S
N1453      C1458   1.368       .  A
N1454      N1455   1.311       .  A
N1454     Mn1456   2.164       .  S
N1455      C1457   1.339       .  A
Mn1456     N3868   2.181       .  S
Mn1456     N3874   2.166       .  S
Mn1456    Cl1480   2.484       .  S
C1457      C1668   1.495       .  S
C1458      C1780   1.494       .  S
N1459      N1460   1.326       .  A
N1459      N1465   1.311       .  A
N1459     Mn1467   2.221       .  S
N1460      C1468   1.358       .  A
N1461      N1463   1.313       .  A
N1461      N1462   1.323       .  A
N1461     Mn3903   2.169   1_455  S
N1462      C1469   1.345       .  A
N1463      N1464   1.325       .  A
N1463     Mn3891   2.251       .  S
N1464      C1469   1.362       .  A
N1465      N1466   1.318       .  A
N1465     Mn1479   2.172       .  S
N1466      C1468   1.348       .  A
Mn1467     N3862   2.228       .  S
Mn1467     N3887   2.251       .  S
Mn1467    Cl1480   2.574       .  S
C1468      C1486   1.492       .  S
C1469      C1500   1.504       .  S
N1470      N1471   1.337       .  A
N1470      N1476   1.318       .  A
N1470     Mn3902   2.277       .  S
N1471      C1481   1.370       .  A
N1472      N1473   1.311       .  A
N1472      N1474   1.320       .  A
N1472     Mn1479   2.190       .  S
N1473      C1482   1.340       .  A
N1474      N1475   1.332       .  A
N1474     Mn1478   2.240       .  S
N1475      C1482   1.363       .  A
N1476      N1477   1.309       .  A
N1476     Mn3903   2.162   1_455  S
N1477      C1481   1.334       .  A
Mn1478     N3876   2.267       .  S
Mn1478     N3894   2.277       .  S
Mn1478    Cl1480   2.626       .  S
Mn1479     N3885   2.169       .  S
Mn1479     N3900   2.162       .  S
Mn1479    Cl1480   2.464       .  S
C1481      C1766   1.502       .  S
C1482      C1651   1.488       .  S
C1483      C1484   1.409       .  A
C1483      C1488   1.413       .  A
C1484      C1485   1.411       .  A
C1484      C1489   1.451       .  S
C1485      C1486   1.416       .  A
C1485      C1492   1.446       .  S
C1486      C1487   1.409       .  A
C1487      C1488   1.415       .  A
C1487      C1490   1.449       .  S
C1488      C1491   1.446       .  S
C1489      N1496   1.157       .  T
C1492      N1494   1.156       .  T
C1497      C1498   1.412       .  A
C1497      C1502   1.417       .  A
C1498      C1499   1.420       .  A
C1498      C1503   1.449       .  S
C1499      C1500   1.417       .  A
C1499      C1506   1.451       .  S
C1500      C1501   1.413       .  A
C1501      C1502   1.419       .  A
C1501      C1504   1.448       .  S
C1502      C1505   1.451       .  S
C1503      N1510   1.157       .  T
C1504      N1509   1.157       .  T
C1505      N1507   1.157       .  T
C1506      N1508   1.157       .  T
C1511      C1512   1.411       .  A
C1511      C1516   1.422       .  A
C1512      C1513   1.410       .  A
C1512      C1517   1.438       .  S
C1513      C1514   1.409       .  A
C1513      C1520   1.441       .  S
C1514      C1515   1.415       .  A
C1515      C1516   1.422       .  A
C1515      C1518   1.451       .  S
C1516      C1519   1.447       .  S
C1517      N1524   1.153       .  T
C1518      N1523   1.158       .  T
C1519      N1521   1.157       .  T
C1520      N1522   1.155       .  T
C1525      C1526   1.402       .  A
C1525      C1530   1.417       .  A
C1526      C1527   1.408       .  A
C1526      C1531   1.450       .  S
C1527      C1528   1.413       .  A
C1527      C1534   1.429       .  S
C1528      C1529   1.421       .  A
C1529      C1530   1.423       .  A
C1529      C1532   1.450       .  S
C1530      C1533   1.449       .  S
C1531      N1538   1.156       .  T
C1532      N1537   1.157       .  T
C1533      N1535   1.157       .  T
C1539      C1540   1.417       .  A
C1539      C1544   1.409       .  A
C1540      C1541   1.419       .  A
C1540      C1545   1.450       .  S
C1541      C1542   1.412       .  A
C1541      C1548   1.449       .  S
C1542      C1543   1.410       .  A
C1543      C1544   1.415       .  A
C1543      C1546   1.443       .  S
C1544      C1547   1.447       .  S
C1545      N1552   1.157       .  T
C1546      N1551   1.155       .  T
C1547      N1549   1.156       .  T
C1548      N1550   1.157       .  T
C1553      C1554   1.404       .  A
C1553      C1558   1.417       .  A
C1554      C1555   1.405       .  A
C1554      C1559   1.445       .  S
C1555      C1556   1.413       .  A
C1555      C1562   1.433       .  S
C1556      C1557   1.421       .  A
C1557      C1558   1.422       .  A
C1557      C1560   1.451       .  S
C1558      C1561   1.450       .  S
C1559      N1566   1.154       .  T
C1560      N1565   1.157       .  T
C1561      N1563   1.157       .  T
C1562      N1564   1.151       .  T
C1567      C1568   1.413       .  A
C1567      C1572   1.403       .  A
C1568      C1569   1.419       .  A
C1568      C1573   1.448       .  S
C1569      C1570   1.426       .  A
C1569      C1576   1.452       .  S
C1570      C1571   1.419       .  A
C1571      C1572   1.407       .  A
C1571      C1574   1.442       .  S
C1572      C1575   1.446       .  S
C1573      N1580   1.156       .  T
C1574      N1579   1.156       .  T
C1575      N1577   1.155       .  T
C1576      N1578   1.158       .  T
C1581      C1582   1.424       .  A
C1581      C1586   1.417       .  A
C1582      C1583   1.424       .  A
C1582      C1587   1.451       .  S
C1583      C1584   1.423       .  A
C1583      C1590   1.452       .  S
C1584      C1585   1.416       .  A
C1585      C1586   1.415       .  A
C1585      C1588   1.438       .  S
C1586      C1589   1.445       .  S
C1587      N1594   1.158       .  T
C1588      N1593   1.153       .  T
C1589      N1591   1.155       .  T
C1590      N1592   1.158       .  T
C1595      C1596   1.400       .  A
C1595      C1600   1.414       .  A
C1596      C1597   1.407       .  A
C1596      C1601   1.452       .  S
C1597      C1598   1.426       .  A
C1597      C1604   1.454       .  S
C1598      C1599   1.415       .  A
C1599      C1600   1.421       .  A
C1599      C1602   1.448       .  S
C1600      C1603   1.445       .  S
C1601      N1608   1.157       .  T
C1602      N1607   1.157       .  T
C1603      N2211   1.156   1_554  T
C1604      N1606   1.157       .  T
N1605      C2209   1.156       .  T
C1609      C1610   1.414       .  A
C1609      C1614   1.405       .  A
C1610      C1611   1.422       .  A
C1610      C1615   1.448       .  S
C1611      C1612   1.416       .  A
C1611      C1618   1.447       .  S
C1612      C1613   1.423       .  A
C1613      C1614   1.407       .  A
C1613      C1616   1.452       .  S
C1614      C1617   1.455       .  S
C1615      N1622   1.157       .  T
C1616      N1621   1.157       .  T
C1617      N1619   1.157       .  T
C1618      N1620   1.157       .  T
C1623      C1624   1.428       .  A
C1623      C1628   1.400       .  A
C1624      C1625   1.411       .  A
C1624      C1629   1.451       .  S
C1625      C1626   1.401       .  A
C1625      C1632   1.451       .  S
C1626      C1627   1.431       .  A
C1627      C1628   1.410       .  A
C1627      C1630   1.452       .  S
C1628      C1631   1.452       .  S
C1629      N1636   1.157       .  T
C1630      N1635   1.157       .  T
C1631      N1633   1.157       .  T
C1632      N1634   1.157       .  T
C1637      C1638   1.441       .  A
C1637      C1642   1.418       .  A
C1638      C1639   1.409       .  A
C1638      C1643   1.450       .  S
C1639      C1640   1.394       .  A
C1639      C1646   1.454       .  S
C1640      C1641   1.408       .  A
C1641      C1642   1.417       .  A
C1641      C1644   1.447       .  S
C1642      C1645   1.447       .  S
C1643      N1650   1.156       .  T
C1644      N1649   1.157       .  T
C1645      N1647   1.157       .  T
C1646      N1648   1.157       .  T
C1651      C1652   1.412       .  A
C1651      C1656   1.404       .  A
C1652      C1653   1.421       .  A
C1652      C1657   1.451       .  S
C1653      C1654   1.429       .  A
C1653      C1660   1.451       .  S
C1654      C1655   1.427       .  A
C1655      C1656   1.409       .  A
C1655      C1658   1.452       .  S
C1656      C1659   1.450       .  S
C1657      N1664   1.157       .  T
C1658      N1663   1.158       .  T
C1659      N1661   1.157       .  T
C1660      N1662   1.158       .  T
C1665      C1666   1.422       .  A
C1665      C1670   1.425       .  A
C1666      C1667   1.417       .  A
C1666      C1671   1.444       .  S
C1667      C1668   1.408       .  A
C1667      C1674   1.445       .  S
C1668      C1669   1.412       .  A
C1669      C1670   1.419       .  A
C1669      C1672   1.453       .  S
C1670      C1673   1.448       .  S
C1671      N1678   1.155       .  T
C1672      N1677   1.157       .  T
C1673      N1675   1.157       .  T
C1674      N1676   1.155       .  T
C1679      C1680   1.409       .  A
C1679      C1684   1.409       .  A
C1680      C1681   1.431       .  A
C1680      C1685   1.443       .  S
C1681      C1682   1.422       .  A
C1681      C1688   1.440       .  S
C1682      C1683   1.409       .  A
C1683      C1684   1.398       .  A
C1683      C1686   1.448       .  S
C1684      C1687   1.443       .  S
C1685      N1692   1.157       .  T
C1686      N1691   1.157       .  T
C1687      N1689   1.155       .  T
C1688      N1690   1.156       .  T
C1693      C1694   1.406       .  A
C1693      C1698   1.419       .  A
C1694      C1695   1.408       .  A
C1694      C1699   1.444       .  S
C1695      C1696   1.408       .  A
C1695      C1702   1.439       .  S
C1696      C1697   1.410       .  A
C1697      C1698   1.421       .  A
C1697      C1700   1.448       .  S
C1698      C1701   1.449       .  S
C1699      N4130   1.155       .  T
C1700      N1705   1.157       .  T
C1701      N1703   1.157       .  T
C1702      N4128   1.153       .  T
N1704      C4126   1.153   1_455  T
N1706      C4123   1.155   1_455  T
C1707      C1708   1.414       .  A
C1707      C1712   1.405       .  A
C1708      C1709   1.420       .  A
C1708      C1713   1.446       .  S
C1709      C1710   1.415       .  A
C1709      C1716   1.449       .  S
C1710      C1711   1.419       .  A
C1711      C1712   1.407       .  A
C1711      C1714   1.452       .  S
C1712      C1715   1.451       .  S
C1713      N1720   1.156       .  T
C1714      N1719   1.157       .  T
C1715      N1717   1.157       .  T
C1716      N1718   1.157       .  T
C1721      C1722   1.429       .  A
C1721      C1726   1.397       .  A
C1722      C1723   1.414       .  A
C1722      C1727   1.452       .  S
C1723      C1724   1.407       .  A
C1723      C1730   1.451       .  S
C1724      C1725   1.436       .  A
C1725      C1726   1.410       .  A
C1725      C1728   1.454       .  S
C1726      C1729   1.453       .  S
C1727      N1734   1.157       .  T
C1728      N1733   1.158       .  T
C1729      N1731   1.157       .  T
C1730      N1732   1.157       .  T
C1735      C1736   1.425       .  A
C1735      C1740   1.403       .  A
C1736      C1737   1.411       .  A
C1736      C1741   1.449       .  S
C1737      C1738   1.402       .  A
C1737      C1744   1.451       .  S
C1738      C1739   1.427       .  A
C1739      C1740   1.412       .  A
C1739      C1742   1.451       .  S
C1740      C1743   1.451       .  S
C1741      N2354   1.156   1_554  T
C1742      N1747   1.157       .  T
C1743      N1745   1.157       .  T
C1744      N2352   1.157       .  T
N1746      C2350   1.157       .  T
N1748      C2347   1.156       .  T
C1749      C1750   1.428       .  A
C1749      C1754   1.401       .  A
C1750      C1751   1.413       .  A
C1750      C1755   1.452       .  S
C1751      C1752   1.403       .  A
C1751      C1758   1.451       .  S
C1752      C1753   1.427       .  A
C1753      C1754   1.411       .  A
C1753      C1756   1.448       .  S
C1754      C1757   1.451       .  S
C1755      N1762   1.157       .  T
C1756      N1761   1.156       .  T
C1757      N1759   1.157       .  T
C1758      N1760   1.157       .  T
C1763      C1764   1.420       .  A
C1763      C1768   1.401       .  A
C1764      C1765   1.423       .  A
C1764      C1769   1.448       .  S
C1765      C1766   1.411       .  A
C1765      C1772   1.450       .  S
C1766      C1767   1.428       .  A
C1767      C1768   1.410       .  A
C1767      C1770   1.448       .  S
C1768      C1771   1.454       .  S
C1769      N1776   1.157       .  T
C1770      N4199   1.156   1_455  T
C1771      N4197   1.157   1_455  T
C1772      N1774   1.157       .  T
N1773      C4195   1.157       .  T
N1775      C4194   1.156       .  T
C1777      C1778   1.428       .  A
C1777      C1782   1.426       .  A
C1778      C1779   1.416       .  A
C1778      C1783   1.436       .  S
C1779      C1780   1.398       .  A
C1779      C1786   1.449       .  S
C1780      C1781   1.411       .  A
C1781      C1782   1.416       .  A
C1781      C1784   1.451       .  S
C1782      C1785   1.451       .  S
C1783      N1790   1.153       .  T
C1784      N1789   1.157       .  T
C1785      N1787   1.158       .  T
C1786      N1788   1.157       .  T
C1791      C1792   1.408       .  A
C1791      C1796   1.424       .  A
C1792      C1793   1.418       .  A
C1792      C1797   1.450       .  S
C1793      C1794   1.419       .  A
C1793      C1800   1.448       .  S
C1794      C1795   1.401       .  A
C1795      C1796   1.408       .  A
C1795      C1798   1.453       .  S
C1796      C1799   1.446       .  S
C1797      N1804   1.157       .  T
C1798      N1803   1.157   1_455  T
C1799      N1801   1.154   1_455  T
C1800      N1802   1.157       .  T
C1805      C1806   1.434       .  A
C1805      C1810   1.410       .  A
C1806      C1807   1.400       .  A
C1806      C1811   1.455       .  S
C1807      C1808   1.397       .  A
C1807      C1814   1.456       .  S
C1808      C1809   1.415       .  A
C1809      C1810   1.420       .  A
C1809      C1812   1.449       .  S
C1810      C1813   1.447       .  S
C1811      N1818   1.157       .  T
C1812      N1817   1.157       .  T
C1813      N1815   1.157       .  T
C1814      N1816   1.157       .  T
N1819      N1820   1.332       .  A
N1819      N1825   1.321       .  A
N1820      C1827   1.364       .  A
N1821      N1823   1.316       .  A
N1821      N1822   1.303       .  A
N1822      C1828   1.330       .  A
N1823      N1824   1.335       .  A
N1823     Mn1848   2.262       .  S
N1824      C1828   1.372       .  A
N1825      N1826   1.309       .  A
N1825     Mn1837   2.167       .  S
N1826      C1827   1.336       .  A
C1827      C2358   1.493       .  S
C1828      C2330   1.507       .  S
N1829      N1835   1.311       .  A
N1829      N1830   1.325       .  A
N1830      C1838   1.353       .  A
N1831      N1832   1.319       .  A
N1831      N1833   1.310       .  A
N1831     Mn1837   2.155       .  S
N1832      C1839   1.345       .  A
N1833      N1834   1.320       .  A
N1833     Mn1859   2.199       .  S
N1834      C1839   1.352       .  A
N1835      N1836   1.319       .  A
N1836      C1838   1.345       .  A
Mn1837    Cl1861   2.434       .  S
C1838      C2400   1.486       .  S
C1839      C2414   1.475       .  S
N1840      N1841   1.334       .  A
N1840      N1846   1.319       .  A
N1840     Mn1848   2.253       .  S
N1841      C1849   1.368       .  A
N1842      N1844   1.324       .  A
N1842      N1843   1.310       .  A
N1843      C1850   1.336       .  A
N1844      N1845   1.332       .  A
N1845      C1850   1.362       .  A
N1846      N1847   1.305       .  A
N1846     Mn1860   2.162   1_556  S
N1847      C1849   1.334       .  A
C1849      C2316   1.491       .  S
C1850      C2341   1.488       .  S
N1851      N1852   1.328       .  A
N1851      N1857   1.309       .  A
N1851     Mn1859   2.213       .  S
N1852      C1862   1.359       .  A
N1853      N1854   1.322       .  A
N1853      N1855   1.312       .  A
N1853     Mn1860   2.180   1_556  S
N1854      C1863   1.345       .  A
N1855      N1856   1.326       .  A
N1856      C1863   1.354       .  A
N1857      N1858   1.322       .  A
N1858      C1862   1.355       .  A
Mn1859    Cl1861   2.605       .  S
C1862      C2383   1.522       .  S
C1863      C2369   1.493       .  S
N1864      N1865   1.325       .  A
N1864      N1870   1.311       .  A
N1864     Mn1893   2.218       .  S
N1865      C1872   1.356       .  A
N1866      N1868   1.311       .  A
N1866      N1867   1.317       .  A
N1867      C1873   1.344       .  A
N1868      N1869   1.333       .  A
N1869      C1873   1.361       .  A
N1870      N1871   1.323       .  A
N1870     Mn1882   2.167       .  S
N1871      C1872   1.347       .  A
C1872      C2299   1.499       .  S
C1873      C2288   1.503       .  S
N1874      N1880   1.318       .  A
N1874      N1875   1.336       .  A
N1875      C1883   1.370       .  A
N1876      N1877   1.307       .  A
N1876      N1878   1.319       .  A
N1876     Mn1882   2.153       .  S
N1877      C1884   1.335       .  A
N1878      N1879   1.336       .  A
N1878     Mn1904   2.266       .  S
N1879      C1884   1.370       .  A
N1880      N1881   1.304       .  A
N1881      C1883   1.332       .  A
Mn1882    Cl1906   2.436       .  S
C1883      C2243   1.517       .  S
C1884      C2218   1.500       .  S
N1885      N1886   1.325       .  A
N1885      N1891   1.306       .  A
N1886      C1894   1.357       .  A
N1887      N1889   1.311       .  A
N1887      N1888   1.322       .  A
N1887     Mn1905   2.189       .  S
N1888      C1895   1.353       .  A
N1889      N1890   1.323       .  A
N1889     Mn1893   2.222       .  S
N1890      C1895   1.358       .  A
N1891      N1892   1.318       .  A
N1892      C1894   1.353       .  A
Mn1893    Cl1906   2.588       .  S
C1894      C2260   1.517       .  S
C1895      C2271   1.524       .  S
N1896      N1897   1.333       .  A
N1896      N1902   1.321       .  A
N1896     Mn1904   2.240       .  S
N1897      C1907   1.362       .  A
N1898      N1899   1.306       .  A
N1898      N1900   1.323       .  A
N1899      C1908   1.331       .  A
N1900      N1901   1.333       .  A
N1901      C1908   1.365       .  A
N1902      N1903   1.309       .  A
N1902     Mn1905   2.178       .  S
N1903      C1907   1.336       .  A
Mn1904    Cl1906   2.636       .  S
Mn1905    Cl1906   2.437       .  S
C1907      C2201   1.480       .  S
C1908      C2232   1.491       .  S
N1909      N1910   1.332       .  A
N1909      N1915   1.324       .  A
N1909     Mn1938   2.270       .  S
N1910      C1917   1.364       .  A
N1911      N1913   1.320       .  A
N1911      N1912   1.308       .  A
N1911     Mn1927   2.164       .  S
N1912      C1918   1.334       .  A
N1913      N1914   1.333       .  A
N1913     Mn1938   2.244       .  S
N1914      C1918   1.363       .  A
N1915      N1916   1.309       .  A
N1915     Mn1927   2.158       .  S
N1916      C1917   1.333       .  A
C1917      C2355   1.491       .  S
C1918      C2215   1.481       .  S
N1919      N1925   1.310       .  A
N1919      N1920   1.325       .  A
N1920      C1928   1.359       .  A
N1921      N1922   1.323       .  A
N1921      N1923   1.307       .  A
N1921     Mn1927   2.176       .  S
N1922      C1929   1.353       .  A
N1923      N1924   1.322       .  A
N1924      C1929   1.360       .  A
N1925      N1926   1.319       .  A
N1925     Mn1927   2.173       .  S
N1926      C1928   1.348       .  A
C1928      C2176   1.510       .  S
C1929      C2187   1.524       .  S
N1930      N1931   1.337       .  A
N1930      N1936   1.318       .  A
N1931      C1939   1.372       .  A
N1932      N1934   1.323       .  A
N1932      N1933   1.311       .  A
N1932     Mn1950   2.168       .  S
N1933      C1940   1.336       .  A
N1934      N1935   1.331       .  A
N1935      C1940   1.360       .  A
N1936      N1937   1.301       .  A
N1936     Mn1950   2.140       .  S
N1937      C1939   1.330       .  A
C1939      C2204   1.500       .  S
C1940      C2344   1.492       .  S
N1941      N1942   1.319       .  A
N1941      N1947   1.310       .  A
N1941     Mn1949   2.213   1_565  S
N1942      C1952   1.357       .  A
N1943      N1944   1.321       .  A
N1943      N1945   1.309       .  A
N1943     Mn1950   2.174       .  S
N1944      C1953   1.346       .  A
N1945      N1946   1.326       .  A
N1945     Mn1949   2.219   1_565  S
N1946      C1953   1.359       .  A
N1947      N1948   1.323       .  A
N1947     Mn1950   2.166       .  S
N1948      C1952   1.349       .  A
Mn1949    Cl1951   2.586       .  S
Mn1950    Cl1951   2.449   1_565  S
C1952      C2159   1.500       .  S
C1953      C2145   1.497       .  S
N1954      N1955   1.328       .  A
N1954      N1960   1.310       .  A
N1954     Mn1983   2.228       .  S
N1955      C1962   1.363       .  A
N1956      N1958   1.312       .  A
N1956      N1957   1.324       .  A
N1956     Mn1972   2.176       .  S
N1957      C1963   1.352       .  A
N1958      N1959   1.322       .  A
N1958     Mn1983   2.241       .  S
N1959      C1963   1.361       .  A
N1960      N1961   1.321       .  A
N1960     Mn1972   2.188       .  S
N1961      C1962   1.349       .  A
C1962      C2134   1.513       .  S
C1963      C2117   1.519       .  S
N1964      N1970   1.322       .  A
N1964      N1965   1.328       .  A
N1964     Mn1994   2.224       .  S
N1965      C1973   1.356       .  A
N1966      N1967   1.303       .  A
N1966      N1968   1.320       .  A
N1966     Mn1972   2.127       .  S
N1967      C1974   1.326       .  A
N1968      N1969   1.335       .  A
N1968     Mn1994   2.281       .  S
N1969      C1974   1.370       .  A
N1970      N1971   1.314       .  A
N1970     Mn1972   2.196       .  S
N1971      C1973   1.342       .  A
Mn1972    Cl1996   2.466       .  S
C1973      C2246   1.478       .  S
C1974      C2327   1.484       .  S
N1975      N1976   1.326       .  A
N1975      N1981   1.311       .  A
N1976      C1984   1.358       .  A
N1977      N1979   1.312       .  A
N1977      N1978   1.322       .  A
N1977     Mn1995   2.156       .  S
N1978      C1985   1.344       .  A
N1979      N1980   1.325       .  A
N1980      C1985   1.363       .  A
N1981      N1982   1.319       .  A
N1981     Mn1995   2.165       .  S
N1982      C1984   1.346       .  A
Mn1983    Cl1996   2.566       .  S
C1984      C2089   1.488       .  S
C1985      C2103   1.502       .  S
N1986      N1987   1.334       .  A
N1986      N1992   1.319       .  A
N1987      C1997   1.365       .  A
N1988      N1989   1.308       .  A
N1988      N1990   1.321       .  A
N1988     Mn1995   2.152       .  S
N1989      C1998   1.333       .  A
N1990      N1991   1.332       .  A
N1991      C1998   1.364       .  A
N1992      N1993   1.307       .  A
N1992     Mn1995   2.161       .  S
N1993      C1997   1.333       .  A
Mn1994    Cl1996   2.620       .  S
C1997      C2313   1.480       .  S
C1998      C2229   1.488       .  S
N1999      N2000   1.335       .  A
N1999      N2005   1.315       .  A
N1999     Mn4452   2.283   1_455  S
N2000      C2007   1.373       .  A
N2001      N2003   1.318       .  A
N2001      N2002   1.316       .  A
N2001     Mn4441   2.206       .  S
N2002      C2008   1.345       .  A
N2003      N2004   1.332       .  A
N2003     Mn2028   2.238       .  S
N2004      C2008   1.363       .  A
N2005      N2006   1.304       .  A
N2005     Mn2017   2.163       .  S
N2006      C2007   1.331       .  A
C2007      C2411   1.498       .  S
C2008      C2302   1.494       .  S
N2009      N2015   1.313       .  A
N2009      N2010   1.318       .  A
N2009     Mn4463   2.217       .  S
N2010      C2018   1.358       .  A
N2011      N2012   1.321       .  A
N2011      N2013   1.306       .  A
N2011     Mn2017   2.177       .  S
N2012      C2019   1.351       .  A
N2013      N2014   1.324       .  A
N2013     Mn2039   2.218   1_455  S
N2014      C2019   1.363       .  A
N2015      N2016   1.322       .  A
N2015     Mn4441   2.184       .  S
N2016      C2018   1.352       .  A
Mn2017     N4425   2.206   1_455  S
Mn2017     N4439   2.184   1_455  S
Mn2017    Cl2041   2.446   1_455  S
C2018      C2173   1.501       .  S
C2019      C2190   1.525       .  S
N2020      N2021   1.339       .  A
N2020      N2026   1.319       .  A
N2020     Mn2028   2.270       .  S
N2021      C2029   1.371       .  A
N2022      N2024   1.319       .  A
N2022      N2023   1.311       .  A
N2022     Mn2040   2.175   1_455  S
N2023      C2030   1.338       .  A
N2024      N2025   1.333       .  A
N2024     Mn4452   2.250   1_455  S
N2025      C2030   1.364       .  A
N2026      N2027   1.304       .  A
N2026     Mn4464   2.182       .  S
N2027      C2029   1.340       .  A
Mn2028     N4423   2.283       .  S
Mn2028     N4448   2.250       .  S
Mn2028    Cl4465   2.648       .  S
C2029      C2285   1.509       .  S
C2030      C2397   1.494       .  S
N2031      N2032   1.321       .  A
N2031      N2037   1.313       .  A
N2031     Mn2039   2.217   1_455  S
N2032      C2042   1.357       .  A
N2033      N2034   1.322       .  A
N2033      N2035   1.310       .  A
N2033     Mn4464   2.193       .  S
N2034      C2043   1.354       .  A
N2035      N2036   1.325       .  A
N2035     Mn4463   2.219       .  S
N2036      C2043   1.361       .  A
N2037      N2038   1.324       .  A
N2037     Mn2040   2.185   1_455  S
N2038      C2042   1.350       .  A
Mn2039     N4433   2.217       .  S
Mn2039     N4459   2.219       .  S
Mn2039    Cl2041   2.588       .  S
Mn2040     N4450   2.182       .  S
Mn2040     N4457   2.193       .  S
Mn2040    Cl2041   2.445       .  S
Cl2041    Mn4452   2.648       .  S
C2042      C2131   1.498       .  S
C2043      C2120   1.512       .  S
N2044      N2045   1.326       .  A
N2044      N2050   1.310       .  A
N2044     Mn4497   2.228       .  S
N2045      C2052   1.362       .  A
N2046      N2048   1.314       .  A
N2046      N2047   1.323       .  A
N2046     Mn2062   2.187       .  S
N2047      C2053   1.349       .  A
N2048      N2049   1.326       .  A
N2048     Mn2073   2.245       .  S
N2049      C2053   1.361       .  A
N2050      N2051   1.320       .  A
N2050     Mn4486   2.181       .  S
N2051      C2052   1.351       .  A
C2052      C2162   1.508       .  S
C2053      C2148   1.500       .  S
N2054      N2060   1.319       .  A
N2054      N2055   1.334       .  A
N2054     Mn2084   2.277       .  S
N2055      C2063   1.369       .  A
N2056      N2057   1.310       .  A
N2056      N2058   1.320       .  A
N2056     Mn4486   2.166       .  S
N2057      C2064   1.339       .  A
N2058      N2059   1.331       .  A
N2058     Mn4508   2.267       .  S
N2059      C2064   1.368       .  A
N2060      N2061   1.311       .  A
N2060     Mn2062   2.164       .  S
N2061      C2063   1.339       .  A
Mn2062     N4474   2.181       .  S
Mn2062     N4480   2.166       .  S
Mn2062    Cl2086   2.484       .  S
C2063      C2274   1.495       .  S
C2064      C2386   1.494       .  S
N2065      N2066   1.326       .  A
N2065      N2071   1.311       .  A
N2065     Mn2073   2.221       .  S
N2066      C2074   1.358       .  A
N2067      N2069   1.313       .  A
N2067      N2068   1.323       .  A
N2067     Mn4509   2.169   1_455  S
N2068      C2075   1.345       .  A
N2069      N2070   1.325       .  A
N2069     Mn4497   2.251       .  S
N2070      C2075   1.362       .  A
N2071      N2072   1.318       .  A
N2071     Mn2085   2.172       .  S
N2072      C2074   1.348       .  A
Mn2073     N4468   2.228       .  S
Mn2073     N4493   2.251       .  S
Mn2073    Cl2086   2.574       .  S
C2074      C2092   1.492       .  S
C2075      C2106   1.504       .  S
N2076      N2077   1.337       .  A
N2076      N2082   1.318       .  A
N2076     Mn4508   2.277       .  S
N2077      C2087   1.370       .  A
N2078      N2079   1.311       .  A
N2078      N2080   1.320       .  A
N2078     Mn2085   2.190       .  S
N2079      C2088   1.340       .  A
N2080      N2081   1.332       .  A
N2080     Mn2084   2.240       .  S
N2081      C2088   1.363       .  A
N2082      N2083   1.309       .  A
N2082     Mn4509   2.162   1_455  S
N2083      C2087   1.334       .  A
Mn2084     N4482   2.267       .  S
Mn2084     N4500   2.277       .  S
Mn2084    Cl2086   2.626       .  S
Mn2085     N4491   2.169       .  S
Mn2085     N4506   2.162       .  S
Mn2085    Cl2086   2.464       .  S
C2087      C2372   1.502       .  S
C2088      C2257   1.488       .  S
C2089      C2090   1.409       .  A
C2089      C2094   1.413       .  A
C2090      C2091   1.411       .  A
C2090      C2095   1.451       .  S
C2091      C2092   1.416       .  A
C2091      C2098   1.446       .  S
C2092      C2093   1.409       .  A
C2093      C2094   1.415       .  A
C2093      C2096   1.449       .  S
C2094      C2097   1.446       .  S
C2095      N2102   1.157       .  T
C2098      N2100   1.156       .  T
C2103      C2104   1.412       .  A
C2103      C2108   1.417       .  A
C2104      C2105   1.420       .  A
C2104      C2109   1.449       .  S
C2105      C2106   1.417       .  A
C2105      C2112   1.451       .  S
C2106      C2107   1.413       .  A
C2107      C2108   1.419       .  A
C2107      C2110   1.448       .  S
C2108      C2111   1.451       .  S
C2109      N2116   1.157       .  T
C2110      N2115   1.157       .  T
C2111      N2113   1.157       .  T
C2112      N2114   1.157       .  T
C2117      C2118   1.411       .  A
C2117      C2122   1.422       .  A
C2118      C2119   1.410       .  A
C2118      C2123   1.438       .  S
C2119      C2120   1.409       .  A
C2119      C2126   1.441       .  S
C2120      C2121   1.415       .  A
C2121      C2122   1.422       .  A
C2121      C2124   1.451       .  S
C2122      C2125   1.447       .  S
C2123      N2130   1.153       .  T
C2124      N2129   1.158       .  T
C2125      N2127   1.157       .  T
C2126      N2128   1.155       .  T
C2131      C2132   1.402       .  A
C2131      C2136   1.417       .  A
C2132      C2133   1.408       .  A
C2132      C2137   1.450       .  S
C2133      C2134   1.413       .  A
C2133      C2140   1.429       .  S
C2134      C2135   1.421       .  A
C2135      C2136   1.423       .  A
C2135      C2138   1.450       .  S
C2136      C2139   1.449       .  S
C2137      N2144   1.156       .  T
C2138      N2143   1.157       .  T
C2139      N2141   1.157       .  T
C2145      C2146   1.417       .  A
C2145      C2150   1.409       .  A
C2146      C2147   1.419       .  A
C2146      C2151   1.450       .  S
C2147      C2148   1.412       .  A
C2147      C2154   1.449       .  S
C2148      C2149   1.410       .  A
C2149      C2150   1.415       .  A
C2149      C2152   1.443       .  S
C2150      C2153   1.447       .  S
C2151      N2158   1.157       .  T
C2152      N2157   1.155       .  T
C2153      N2155   1.156       .  T
C2154      N2156   1.157       .  T
C2159      C2160   1.404       .  A
C2159      C2164   1.417       .  A
C2160      C2161   1.405       .  A
C2160      C2165   1.445       .  S
C2161      C2162   1.413       .  A
C2161      C2168   1.433       .  S
C2162      C2163   1.421       .  A
C2163      C2164   1.422       .  A
C2163      C2166   1.451       .  S
C2164      C2167   1.450       .  S
C2165      N2172   1.154       .  T
C2166      N2171   1.157       .  T
C2167      N2169   1.157       .  T
C2168      N2170   1.151       .  T
C2173      C2174   1.413       .  A
C2173      C2178   1.403       .  A
C2174      C2175   1.419       .  A
C2174      C2179   1.448       .  S
C2175      C2176   1.426       .  A
C2175      C2182   1.452       .  S
C2176      C2177   1.419       .  A
C2177      C2178   1.407       .  A
C2177      C2180   1.442       .  S
C2178      C2181   1.446       .  S
C2179      N2186   1.156       .  T
C2180      N2185   1.156       .  T
C2181      N2183   1.155       .  T
C2182      N2184   1.158       .  T
C2187      C2188   1.424       .  A
C2187      C2192   1.417       .  A
C2188      C2189   1.424       .  A
C2188      C2193   1.451       .  S
C2189      C2190   1.423       .  A
C2189      C2196   1.452       .  S
C2190      C2191   1.416       .  A
C2191      C2192   1.415       .  A
C2191      C2194   1.438       .  S
C2192      C2195   1.445       .  S
C2193      N2200   1.158       .  T
C2194      N2199   1.153       .  T
C2195      N2197   1.155       .  T
C2196      N2198   1.158       .  T
C2201      C2202   1.400       .  A
C2201      C2206   1.414       .  A
C2202      C2203   1.407       .  A
C2202      C2207   1.452       .  S
C2203      C2204   1.426       .  A
C2203      C2210   1.454       .  S
C2204      C2205   1.415       .  A
C2205      C2206   1.421       .  A
C2205      C2208   1.448       .  S
C2206      C2209   1.445       .  S
C2207      N2214   1.157       .  T
C2208      N2213   1.157       .  T
C2210      N2212   1.157       .  T
C2215      C2216   1.414       .  A
C2215      C2220   1.405       .  A
C2216      C2217   1.422       .  A
C2216      C2221   1.448       .  S
C2217      C2218   1.416       .  A
C2217      C2224   1.447       .  S
C2218      C2219   1.423       .  A
C2219      C2220   1.407       .  A
C2219      C2222   1.452       .  S
C2220      C2223   1.455       .  S
C2221      N2228   1.157       .  T
C2222      N2227   1.157       .  T
C2223      N2225   1.157       .  T
C2224      N2226   1.157       .  T
C2229      C2230   1.428       .  A
C2229      C2234   1.400       .  A
C2230      C2231   1.411       .  A
C2230      C2235   1.451       .  S
C2231      C2232   1.401       .  A
C2231      C2238   1.451       .  S
C2232      C2233   1.431       .  A
C2233      C2234   1.410       .  A
C2233      C2236   1.452       .  S
C2234      C2237   1.452       .  S
C2235      N2242   1.157       .  T
C2236      N2241   1.157   1_556  T
C2237      N2239   1.157       .  T
C2238      N2240   1.157       .  T
C2243      C2244   1.441       .  A
C2243      C2248   1.418       .  A
C2244      C2245   1.409       .  A
C2244      C2249   1.450       .  S
C2245      C2246   1.394       .  A
C2245      C2252   1.454       .  S
C2246      C2247   1.408       .  A
C2247      C2248   1.417       .  A
C2247      C2250   1.447       .  S
C2248      C2251   1.447       .  S
C2249      N2256   1.156       .  T
C2250      N2255   1.157       .  T
C2251      N2253   1.157       .  T
C2252      N2254   1.157       .  T
C2257      C2258   1.412       .  A
C2257      C2262   1.404       .  A
C2258      C2259   1.421       .  A
C2258      C2263   1.451       .  S
C2259      C2260   1.429       .  A
C2259      C2266   1.451       .  S
C2260      C2261   1.427       .  A
C2261      C2262   1.409       .  A
C2261      C2264   1.452       .  S
C2262      C2265   1.450       .  S
C2263      N2270   1.157       .  T
C2264      N2269   1.158       .  T
C2265      N2267   1.157       .  T
C2266      N2268   1.158       .  T
C2271      C2272   1.422       .  A
C2271      C2276   1.425       .  A
C2272      C2273   1.417       .  A
C2272      C2277   1.444       .  S
C2273      C2274   1.408       .  A
C2273      C2280   1.445       .  S
C2274      C2275   1.412       .  A
C2275      C2276   1.419       .  A
C2275      C2278   1.453       .  S
C2276      C2279   1.448       .  S
C2277      N2284   1.155       .  T
C2278      N2283   1.157       .  T
C2279      N2281   1.157       .  T
C2280      N2282   1.155       .  T
C2285      C2286   1.409       .  A
C2285      C2290   1.409       .  A
C2286      C2287   1.431       .  A
C2286      C2291   1.443       .  S
C2287      C2288   1.422       .  A
C2287      C2294   1.440       .  S
C2288      C2289   1.409       .  A
C2289      C2290   1.398       .  A
C2289      C2292   1.448       .  S
C2290      C2293   1.443       .  S
C2291      N2298   1.157       .  T
C2292      N2297   1.157       .  T
C2293      N2295   1.155       .  T
C2294      N2296   1.156       .  T
C2299      C2300   1.406       .  A
C2299      C2304   1.419       .  A
C2300      C2301   1.408       .  A
C2300      C2305   1.444       .  S
C2301      C2302   1.408       .  A
C2301      C2308   1.439       .  S
C2302      C2303   1.410       .  A
C2303      C2304   1.421       .  A
C2303      C2306   1.448       .  S
C2304      C2307   1.449       .  S
C2305      N4736   1.155       .  T
C2306      N2311   1.157       .  T
C2307      N2309   1.157       .  T
C2308      N4734   1.153       .  T
N2310      C4732   1.153   1_455  T
N2312      C4729   1.155   1_455  T
C2313      C2314   1.414       .  A
C2313      C2318   1.405       .  A
C2314      C2315   1.420       .  A
C2314      C2319   1.446       .  S
C2315      C2316   1.415       .  A
C2315      C2322   1.449       .  S
C2316      C2317   1.419       .  A
C2317      C2318   1.407       .  A
C2317      C2320   1.452       .  S
C2318      C2321   1.451       .  S
C2319      N2326   1.156       .  T
C2320      N2325   1.157       .  T
C2321      N2323   1.157       .  T
C2322      N2324   1.157       .  T
C2327      C2328   1.429       .  A
C2327      C2332   1.397       .  A
C2328      C2329   1.414       .  A
C2328      C2333   1.452       .  S
C2329      C2330   1.407       .  A
C2329      C2336   1.451       .  S
C2330      C2331   1.436       .  A
C2331      C2332   1.410       .  A
C2331      C2334   1.454       .  S
C2332      C2335   1.453       .  S
C2333      N2340   1.157       .  T
C2334      N2339   1.158       .  T
C2335      N2337   1.157       .  T
C2336      N2338   1.157       .  T
C2341      C2342   1.425       .  A
C2341      C2346   1.403       .  A
C2342      C2343   1.411       .  A
C2342      C2347   1.449       .  S
C2343      C2344   1.402       .  A
C2343      C2350   1.451       .  S
C2344      C2345   1.427       .  A
C2345      C2346   1.412       .  A
C2345      C2348   1.451       .  S
C2346      C2349   1.451       .  S
C2348      N2353   1.157       .  T
C2349      N2351   1.157       .  T
C2355      C2356   1.428       .  A
C2355      C2360   1.401       .  A
C2356      C2357   1.413       .  A
C2356      C2361   1.452       .  S
C2357      C2358   1.403       .  A
C2357      C2364   1.451       .  S
C2358      C2359   1.427       .  A
C2359      C2360   1.411       .  A
C2359      C2362   1.448       .  S
C2360      C2363   1.451       .  S
C2361      N2368   1.157       .  T
C2362      N2367   1.156       .  T
C2363      N2365   1.157       .  T
C2364      N2366   1.157       .  T
C2369      C2370   1.420       .  A
C2369      C2374   1.401       .  A
C2370      C2371   1.423       .  A
C2370      C2375   1.448       .  S
C2371      C2372   1.411       .  A
C2371      C2378   1.450       .  S
C2372      C2373   1.428       .  A
C2373      C2374   1.410       .  A
C2373      C2376   1.448       .  S
C2374      C2377   1.454       .  S
C2375      N2382   1.157       .  T
C2376      N4805   1.156   1_455  T
C2377      N4803   1.157   1_455  T
C2378      N2380   1.157       .  T
N2379      C4801   1.157       .  T
N2381      C4800   1.156       .  T
C2383      C2384   1.428       .  A
C2383      C2388   1.426       .  A
C2384      C2385   1.416       .  A
C2384      C2389   1.436       .  S
C2385      C2386   1.398       .  A
C2385      C2392   1.449       .  S
C2386      C2387   1.411       .  A
C2387      C2388   1.416       .  A
C2387      C2390   1.451       .  S
C2388      C2391   1.451       .  S
C2389      N2396   1.153       .  T
C2390      N2395   1.157       .  T
C2391      N2393   1.158       .  T
C2392      N2394   1.157       .  T
C2397      C2398   1.408       .  A
C2397      C2402   1.424       .  A
C2398      C2399   1.418       .  A
C2398      C2403   1.450       .  S
C2399      C2400   1.419       .  A
C2399      C2406   1.448       .  S
C2400      C2401   1.401       .  A
C2401      C2402   1.408       .  A
C2401      C2404   1.453       .  S
C2402      C2405   1.446       .  S
C2403      N2410   1.157       .  T
C2404      N2409   1.157   1_455  T
C2405      N2407   1.154   1_455  T
C2406      N2408   1.157       .  T
C2411      C2412   1.434       .  A
C2411      C2416   1.410       .  A
C2412      C2413   1.400       .  A
C2412      C2417   1.455       .  S
C2413      C2414   1.397       .  A
C2413      C2420   1.456       .  S
C2414      C2415   1.415       .  A
C2415      C2416   1.420       .  A
C2415      C2418   1.449       .  S
C2416      C2419   1.447       .  S
C2417      N2424   1.157       .  T
C2418      N2423   1.157       .  T
C2419      N2421   1.157       .  T
C2420      N2422   1.157       .  T
N2425      N2426   1.332       .  A
N2425      N2431   1.321       .  A
N2425     Mn3060   2.254   1_554  S
N2426      C2433   1.364       .  A
N2427      N2429   1.316       .  A
N2427      N2428   1.303       .  A
N2427     Mn3049   2.140       .  S
N2428      C2434   1.330       .  A
N2429      N2430   1.335       .  A
N2429     Mn2454   2.262       .  S
N2430      C2434   1.372       .  A
N2431      N2432   1.309       .  A
N2431     Mn2443   2.167       .  S
N2432      C2433   1.336       .  A
C2433      C2964   1.493       .  S
C2434      C2936   1.507       .  S
N2435      N2441   1.311       .  A
N2435      N2436   1.325       .  A
N2435     Mn3071   2.207       .  S
N2436      C2444   1.353       .  A
N2437      N2438   1.319       .  A
N2437      N2439   1.310       .  A
N2437     Mn2443   2.155       .  S
N2438      C2445   1.345       .  A
N2439      N2440   1.320       .  A
N2439     Mn2465   2.199       .  S
N2440      C2445   1.352       .  A
N2441      N2442   1.319       .  A
N2441     Mn3049   2.170       .  S
N2442      C2444   1.345       .  A
Mn2443     N3033   2.140   1_554  S
Mn2443     N3047   2.170   1_554  S
Mn2443    Cl2467   2.434       .  S
C2444      C3006   1.486       .  S
C2445      C3020   1.475       .  S
N2446      N2447   1.334       .  A
N2446      N2452   1.319       .  A
N2446     Mn2454   2.253       .  S
N2447      C2455   1.368       .  A
N2448      N2450   1.324       .  A
N2448      N2449   1.310       .  A
N2448     Mn3072   2.167       .  S
N2449      C2456   1.336       .  A
N2450      N2451   1.332       .  A
N2450     Mn3060   2.259   1_554  S
N2451      C2456   1.362       .  A
N2452      N2453   1.305       .  A
N2452     Mn2466   2.162       .  S
N2453      C2455   1.334       .  A
Mn2454     N3031   2.254       .  S
Mn2454     N3056   2.259       .  S
Mn2454    Cl3073   2.616       .  S
C2455      C2922   1.491       .  S
C2456      C2947   1.488       .  S
N2457      N2458   1.328       .  A
N2457      N2463   1.309       .  A
N2457     Mn2465   2.213       .  S
N2458      C2468   1.359       .  A
N2459      N2460   1.322       .  A
N2459      N2461   1.312       .  A
N2459     Mn2466   2.180       .  S
N2460      C2469   1.345       .  A
N2461      N2462   1.326       .  A
N2461     Mn3071   2.210       .  S
N2462      C2469   1.354       .  A
N2463      N2464   1.322       .  A
N2463     Mn3072   2.202       .  S
N2464      C2468   1.355       .  A
Mn2465     N3041   2.207   1_554  S
Mn2465     N3067   2.210   1_554  S
Mn2465    Cl2467   2.605       .  S
Mn2466     N3054   2.167       .  S
Mn2466     N3069   2.202       .  S
Mn2466    Cl3073   2.433       .  S
Cl2467    Mn3060   2.616   1_554  S
Cl2467    Mn3072   2.433       .  S
C2468      C2989   1.522       .  S
C2469      C2975   1.493       .  S
N2470      N2471   1.325       .  A
N2470      N2476   1.311       .  A
N2470     Mn2499   2.218       .  S
N2471      C2478   1.356       .  A
N2472      N2474   1.311       .  A
N2472      N2473   1.317       .  A
N2472     Mn3094   2.169       .  S
N2473      C2479   1.344       .  A
N2474      N2475   1.333       .  A
N2474     Mn3105   2.232       .  S
N2475      C2479   1.361       .  A
N2476      N2477   1.323       .  A
N2476     Mn2488   2.167       .  S
N2477      C2478   1.347       .  A
C2478      C2905   1.499       .  S
C2479      C2894   1.503       .  S
N2480      N2486   1.318       .  A
N2480      N2481   1.336       .  A
N2480     Mn3116   2.264       .  S
N2481      C2489   1.370       .  A
N2482      N2483   1.307       .  A
N2482      N2484   1.319       .  A
N2482     Mn2488   2.153       .  S
N2483      C2490   1.335       .  A
N2484      N2485   1.336       .  A
N2484     Mn2510   2.266       .  S
N2485      C2490   1.370       .  A
N2486      N2487   1.304       .  A
N2486     Mn3094   2.157       .  S
N2487      C2489   1.332       .  A
Mn2488     N3078   2.169   1_554  S
Mn2488     N3092   2.157   1_554  S
Mn2488    Cl2512   2.436       .  S
C2489      C2849   1.517       .  S
C2490      C2824   1.500       .  S
N2491      N2492   1.325       .  A
N2491      N2497   1.306       .  A
N2491     Mn3105   2.190       .  S
N2492      C2500   1.357       .  A
N2493      N2495   1.311       .  A
N2493      N2494   1.322       .  A
N2493     Mn2511   2.189       .  S
N2494      C2501   1.353       .  A
N2495      N2496   1.323       .  A
N2495     Mn2499   2.222       .  S
N2496      C2501   1.358       .  A
N2497      N2498   1.318       .  A
N2497     Mn3117   2.192       .  S
N2498      C2500   1.353       .  A
Mn2499     N3080   2.232   1_554  S
Mn2499     N3097   2.190   1_554  S
Mn2499    Cl2512   2.588       .  S
C2500      C2866   1.517       .  S
C2501      C2877   1.524       .  S
N2502      N2503   1.333       .  A
N2502      N2508   1.321       .  A
N2502     Mn2510   2.240       .  S
N2503      C2513   1.362       .  A
N2504      N2505   1.306       .  A
N2504      N2506   1.323       .  A
N2504     Mn3117   2.159       .  S
N2505      C2514   1.331       .  A
N2506      N2507   1.333       .  A
N2506     Mn3116   2.273       .  S
N2507      C2514   1.365       .  A
N2508      N2509   1.309       .  A
N2508     Mn2511   2.178       .  S
N2509      C2513   1.336       .  A
Mn2510     N3086   2.264   1_554  S
Mn2510     N3112   2.273   1_554  S
Mn2510    Cl2512   2.636       .  S
Mn2511     N3103   2.192   1_554  S
Mn2511     N3110   2.159   1_554  S
Mn2511    Cl2512   2.437       .  S
C2513      C2807   1.480       .  S
C2514      C2838   1.491       .  S
N2515      N2516   1.332       .  A
N2515      N2521   1.324       .  A
N2515     Mn2544   2.270       .  S
N2516      C2523   1.364       .  A
N2517      N2519   1.320       .  A
N2517      N2518   1.308       .  A
N2517     Mn2533   2.164       .  S
N2518      C2524   1.334       .  A
N2519      N2520   1.333       .  A
N2519     Mn2544   2.244       .  S
N2520      C2524   1.363       .  A
N2521      N2522   1.309       .  A
N2521     Mn2533   2.158       .  S
N2522      C2523   1.333       .  A
C2523      C2961   1.491       .  S
C2524      C2821   1.481       .  S
N2525      N2531   1.310       .  A
N2525      N2526   1.325       .  A
N2525     Mn3767   2.217       .  S
N2526      C2534   1.359       .  A
N2527      N2528   1.323       .  A
N2527      N2529   1.307       .  A
N2527     Mn2533   2.176       .  S
N2528      C2535   1.353       .  A
N2529      N2530   1.322       .  A
N2529     Mn3767   2.221       .  S
N2530      C2535   1.360       .  A
N2531      N2532   1.319       .  A
N2531     Mn2533   2.173       .  S
N2532      C2534   1.348       .  A
Mn2533    Cl3769   2.457       .  S
C2534      C2782   1.510       .  S
C2535      C2793   1.524       .  S
N2536      N2537   1.337       .  A
N2536      N2542   1.318       .  A
N2536     Mn3756   2.269       .  S
N2537      C2545   1.372       .  A
N2538      N2540   1.323       .  A
N2538      N2539   1.311       .  A
N2538     Mn2556   2.168       .  S
N2539      C2546   1.336       .  A
N2540      N2541   1.331       .  A
N2540     Mn3756   2.243       .  S
N2541      C2546   1.360       .  A
N2542      N2543   1.301       .  A
N2542     Mn2556   2.140       .  S
N2543      C2545   1.330       .  A
Mn2544     N3748   2.269   1_545  S
Mn2544     N3752   2.243   1_545  S
Mn2544    Cl3769   2.609       .  S
C2545      C2810   1.500       .  S
C2546      C2950   1.492       .  S
N2547      N2548   1.319       .  A
N2547      N2553   1.310       .  A
N2547     Mn2555   2.213       .  S
N2548      C2558   1.357       .  A
N2549      N2550   1.321       .  A
N2549      N2551   1.309       .  A
N2549     Mn2556   2.174       .  S
N2550      C2559   1.346       .  A
N2551      N2552   1.326       .  A
N2551     Mn2555   2.219       .  S
N2552      C2559   1.359       .  A
N2553      N2554   1.323       .  A
N2553     Mn2556   2.166       .  S
N2554      C2558   1.349       .  A
Mn2555     N3737   2.217       .  S
Mn2555     N3741   2.221       .  S
Mn2555    Cl2557   2.586       .  S
Mn2556    Cl2557   2.449       .  S
Cl2557    Mn3745   2.457       .  S
Cl2557    Mn3756   2.609       .  S
C2558      C2765   1.500       .  S
C2559      C2751   1.497       .  S
N2560      N2561   1.328       .  A
N2560      N2566   1.310       .  A
N2560     Mn2589   2.228       .  S
N2561      C2568   1.363       .  A
N2562      N2564   1.312       .  A
N2562      N2563   1.324       .  A
N2562     Mn2578   2.176       .  S
N2563      C2569   1.352       .  A
N2564      N2565   1.322       .  A
N2564     Mn2589   2.241       .  S
N2565      C2569   1.361       .  A
N2566      N2567   1.321       .  A
N2566     Mn2578   2.188       .  S
N2567      C2568   1.349       .  A
C2568      C2740   1.513       .  S
C2569      C2723   1.519       .  S
N2570      N2576   1.322       .  A
N2570      N2571   1.328       .  A
N2570     Mn2600   2.224   1_545  S
N2571      C2579   1.356       .  A
N2572      N2573   1.303       .  A
N2572      N2574   1.320       .  A
N2572     Mn2578   2.127       .  S
N2573      C2580   1.326       .  A
N2574      N2575   1.335       .  A
N2574     Mn2600   2.281   1_545  S
N2575      C2580   1.370       .  A
N2576      N2577   1.314       .  A
N2576     Mn2578   2.196       .  S
N2577      C2579   1.342       .  A
Mn2578    Cl2602   2.466   1_545  S
C2579      C2852   1.478       .  S
C2580      C2933   1.484       .  S
N2581      N2582   1.326       .  A
N2581      N2587   1.311       .  A
N2581     Mn3801   2.223       .  S
N2582      C2590   1.358       .  A
N2583      N2585   1.312       .  A
N2583      N2584   1.322       .  A
N2583     Mn2601   2.156       .  S
N2584      C2591   1.344       .  A
N2585      N2586   1.325       .  A
N2585     Mn3801   2.255       .  S
N2586      C2591   1.363       .  A
N2587      N2588   1.319       .  A
N2587     Mn2601   2.165       .  S
N2588      C2590   1.346       .  A
Mn2589     N3793   2.223   1_545  S
Mn2589     N3797   2.255   1_545  S
Mn2589    Cl2602   2.566   1_545  S
C2590      C2695   1.488       .  S
C2591      C2709   1.502       .  S
N2592      N2593   1.334       .  A
N2592      N2598   1.319       .  A
N2592     Mn3812   2.246       .  S
N2593      C2603   1.365       .  A
N2594      N2595   1.308       .  A
N2594      N2596   1.321       .  A
N2594     Mn2601   2.152       .  S
N2595      C2604   1.333       .  A
N2596      N2597   1.332       .  A
N2596     Mn3812   2.260       .  S
N2597      C2604   1.364       .  A
N2598      N2599   1.307       .  A
N2598     Mn2601   2.161       .  S
N2599      C2603   1.333       .  A
Mn2600     N3804   2.246       .  S
Mn2600     N3808   2.260       .  S
Mn2600    Cl2602   2.620       .  S
Mn2601    Cl3814   2.462       .  S
Cl2602    Mn3813   2.462       .  S
C2603      C2919   1.480       .  S
C2604      C2835   1.488       .  S
N2605      N2606   1.335       .  A
N2605      N2611   1.315       .  A
N2606      C2613   1.373       .  A
N2607      N2609   1.318       .  A
N2607      N2608   1.316       .  A
N2608      C2614   1.345       .  A
N2609      N2610   1.332       .  A
N2609     Mn2634   2.238       .  S
N2610      C2614   1.363       .  A
N2611      N2612   1.304       .  A
N2611     Mn2623   2.163       .  S
N2612      C2613   1.331       .  A
C2613      C3017   1.498       .  S
C2614      C2908   1.494       .  S
N2615      N2621   1.313       .  A
N2615      N2616   1.318       .  A
N2616      C2624   1.358       .  A
N2617      N2618   1.321       .  A
N2617      N2619   1.306       .  A
N2617     Mn2623   2.177       .  S
N2618      C2625   1.351       .  A
N2619      N2620   1.324       .  A
N2619     Mn2645   2.218       .  S
N2620      C2625   1.363       .  A
N2621      N2622   1.322       .  A
N2622      C2624   1.352       .  A
Mn2623    Cl2647   2.446       .  S
C2624      C2779   1.501       .  S
C2625      C2796   1.525       .  S
N2626      N2627   1.339       .  A
N2626      N2632   1.319       .  A
N2626     Mn2634   2.270       .  S
N2627      C2635   1.371       .  A
N2628      N2630   1.319       .  A
N2628      N2629   1.311       .  A
N2628     Mn2646   2.175       .  S
N2629      C2636   1.338       .  A
N2630      N2631   1.333       .  A
N2631      C2636   1.364       .  A
N2632      N2633   1.304       .  A
N2633      C2635   1.340       .  A
C2635      C2891   1.509       .  S
C2636      C3003   1.494       .  S
N2637      N2638   1.321       .  A
N2637      N2643   1.313       .  A
N2637     Mn2645   2.217       .  S
N2638      C2648   1.357       .  A
N2639      N2640   1.322       .  A
N2639      N2641   1.310       .  A
N2640      C2649   1.354       .  A
N2641      N2642   1.325       .  A
N2642      C2649   1.361       .  A
N2643      N2644   1.324       .  A
N2643     Mn2646   2.185       .  S
N2644      C2648   1.350       .  A
Mn2645    Cl2647   2.588       .  S
Mn2646    Cl2647   2.445       .  S
C2648      C2737   1.498       .  S
C2649      C2726   1.512       .  S
N2650      N2651   1.326       .  A
N2650      N2656   1.310       .  A
N2651      C2658   1.362       .  A
N2652      N2654   1.314       .  A
N2652      N2653   1.323       .  A
N2652     Mn2668   2.187   1_655  S
N2653      C2659   1.349       .  A
N2654      N2655   1.326       .  A
N2654     Mn2679   2.245   1_655  S
N2655      C2659   1.361       .  A
N2656      N2657   1.320       .  A
N2657      C2658   1.351       .  A
C2658      C2768   1.508       .  S
C2659      C2754   1.500       .  S
N2660      N2666   1.319       .  A
N2660      N2661   1.334       .  A
N2660     Mn2690   2.277   1_655  S
N2661      C2669   1.369       .  A
N2662      N2663   1.310       .  A
N2662      N2664   1.320       .  A
N2663      C2670   1.339       .  A
N2664      N2665   1.331       .  A
N2665      C2670   1.368       .  A
N2666      N2667   1.311       .  A
N2666     Mn2668   2.164   1_655  S
N2667      C2669   1.339       .  A
Mn2668    Cl2692   2.484       .  S
C2669      C2880   1.495       .  S
C2670      C2992   1.494       .  S
N2671      N2672   1.326       .  A
N2671      N2677   1.311       .  A
N2671     Mn2679   2.221   1_655  S
N2672      C2680   1.358       .  A
N2673      N2675   1.313       .  A
N2673      N2674   1.323       .  A
N2674      C2681   1.345       .  A
N2675      N2676   1.325       .  A
N2676      C2681   1.362       .  A
N2677      N2678   1.318       .  A
N2677     Mn2691   2.172       .  S
N2678      C2680   1.348       .  A
Mn2679    Cl2692   2.574       .  S
C2680      C2698   1.492       .  S
C2681      C2712   1.504       .  S
N2682      N2683   1.337       .  A
N2682      N2688   1.318       .  A
N2683      C2693   1.370       .  A
N2684      N2685   1.311       .  A
N2684      N2686   1.320       .  A
N2684     Mn2691   2.190       .  S
N2685      C2694   1.340       .  A
N2686      N2687   1.332       .  A
N2686     Mn2690   2.240   1_655  S
N2687      C2694   1.363       .  A
N2688      N2689   1.309       .  A
N2689      C2693   1.334       .  A
Mn2690    Cl2692   2.626       .  S
Mn2691    Cl2692   2.464   1_655  S
C2693      C2978   1.502       .  S
C2694      C2863   1.488       .  S
C2695      C2696   1.409       .  A
C2695      C2700   1.413       .  A
C2696      C2697   1.411       .  A
C2696      C2701   1.451       .  S
C2697      C2698   1.416       .  A
C2697      C2704   1.446       .  S
C2698      C2699   1.409       .  A
C2699      C2700   1.415       .  A
C2699      C2702   1.449       .  S
C2700      C2703   1.446       .  S
C2701      N2708   1.157       .  T
C2702      N3919   1.157       .  T
C2703      N3917   1.156       .  T
C2704      N2706   1.156       .  T
N2705      C3915   1.156   1_545  T
N2707      C3914   1.157   1_545  T
C2709      C2710   1.412       .  A
C2709      C2714   1.417       .  A
C2710      C2711   1.420       .  A
C2710      C2715   1.449       .  S
C2711      C2712   1.417       .  A
C2711      C2718   1.451       .  S
C2712      C2713   1.413       .  A
C2713      C2714   1.419       .  A
C2713      C2716   1.448       .  S
C2714      C2717   1.451       .  S
C2715      N2722   1.157       .  T
C2716      N2721   1.157       .  T
C2717      N2719   1.157       .  T
C2718      N2720   1.157       .  T
C2723      C2724   1.411       .  A
C2723      C2728   1.422       .  A
C2724      C2725   1.410       .  A
C2724      C2729   1.438       .  S
C2725      C2726   1.409       .  A
C2725      C2732   1.441       .  S
C2726      C2727   1.415       .  A
C2727      C2728   1.422       .  A
C2727      C2730   1.451       .  S
C2728      C2731   1.447       .  S
C2729      N2736   1.153       .  T
C2730      N2735   1.158       .  T
C2731      N2733   1.157       .  T
C2732      N2734   1.155       .  T
C2737      C2738   1.402       .  A
C2737      C2742   1.417       .  A
C2738      C2739   1.408       .  A
C2738      C2743   1.450       .  S
C2739      C2740   1.413       .  A
C2739      C2746   1.429       .  S
C2740      C2741   1.421       .  A
C2741      C2742   1.423       .  A
C2741      C2744   1.450       .  S
C2742      C2745   1.449       .  S
C2743      N2750   1.156   1_545  T
C2744      N2749   1.157       .  T
C2745      N2747   1.157       .  T
C2746      N3960   1.150   1_545  T
N2748      C3958   1.150       .  T
C2751      C2752   1.417       .  A
C2751      C2756   1.409       .  A
C2752      C2753   1.419       .  A
C2752      C2757   1.450       .  S
C2753      C2754   1.412       .  A
C2753      C2760   1.449       .  S
C2754      C2755   1.410       .  A
C2755      C2756   1.415       .  A
C2755      C2758   1.443       .  S
C2756      C2759   1.447       .  S
C2757      N2764   1.157       .  T
C2758      N2763   1.155       .  T
C2759      N2761   1.156       .  T
C2760      N2762   1.157       .  T
C2765      C2766   1.404       .  A
C2765      C2770   1.417       .  A
C2766      C2767   1.405       .  A
C2766      C2771   1.445       .  S
C2767      C2768   1.413       .  A
C2767      C2774   1.433       .  S
C2768      C2769   1.421       .  A
C2769      C2770   1.422       .  A
C2769      C2772   1.451       .  S
C2770      C2773   1.450       .  S
C2771      N2778   1.154       .  T
C2772      N2777   1.157       .  T
C2773      N2775   1.157       .  T
C2774      N2776   1.151       .  T
C2779      C2780   1.413       .  A
C2779      C2784   1.403       .  A
C2780      C2781   1.419       .  A
C2780      C2785   1.448       .  S
C2781      C2782   1.426       .  A
C2781      C2788   1.452       .  S
C2782      C2783   1.419       .  A
C2783      C2784   1.407       .  A
C2783      C2786   1.442       .  S
C2784      C2787   1.446       .  S
C2785      N2792   1.156       .  T
C2786      N2791   1.156   1_545  T
C2787      N2789   1.155       .  T
C2788      N2790   1.158       .  T
C2793      C2794   1.424       .  A
C2793      C2798   1.417       .  A
C2794      C2795   1.424       .  A
C2794      C2799   1.451       .  S
C2795      C2796   1.423       .  A
C2795      C2802   1.452       .  S
C2796      C2797   1.416       .  A
C2797      C2798   1.415       .  A
C2797      C2800   1.438       .  S
C2798      C2801   1.445       .  S
C2799      N2806   1.158       .  T
C2800      N2805   1.153       .  T
C2801      N2803   1.155       .  T
C2802      N2804   1.158       .  T
C2807      C2808   1.400       .  A
C2807      C2812   1.414       .  A
C2808      C2809   1.407       .  A
C2808      C2813   1.452       .  S
C2809      C2810   1.426       .  A
C2809      C2816   1.454       .  S
C2810      C2811   1.415       .  A
C2811      C2812   1.421       .  A
C2811      C2814   1.448       .  S
C2812      C2815   1.445       .  S
C2813      N2820   1.157       .  T
C2814      N2819   1.157       .  T
C2815      N3423   1.156   1_554  T
C2816      N2818   1.157       .  T
N2817      C3421   1.156       .  T
C2821      C2822   1.414       .  A
C2821      C2826   1.405       .  A
C2822      C2823   1.422       .  A
C2822      C2827   1.448       .  S
C2823      C2824   1.416       .  A
C2823      C2830   1.447       .  S
C2824      C2825   1.423       .  A
C2825      C2826   1.407       .  A
C2825      C2828   1.452       .  S
C2826      C2829   1.455       .  S
C2827      N2834   1.157       .  T
C2828      N2833   1.157       .  T
C2829      N2831   1.157       .  T
C2830      N2832   1.157       .  T
C2835      C2836   1.428       .  A
C2835      C2840   1.400       .  A
C2836      C2837   1.411       .  A
C2836      C2841   1.451       .  S
C2837      C2838   1.401       .  A
C2837      C2844   1.451       .  S
C2838      C2839   1.431       .  A
C2839      C2840   1.410       .  A
C2839      C2842   1.452       .  S
C2840      C2843   1.452       .  S
C2841      N2848   1.157       .  T
C2842      N2847   1.157       .  T
C2843      N2845   1.157       .  T
C2844      N2846   1.157       .  T
C2849      C2850   1.441       .  A
C2849      C2854   1.418       .  A
C2850      C2851   1.409       .  A
C2850      C2855   1.450       .  S
C2851      C2852   1.394       .  A
C2851      C2858   1.454       .  S
C2852      C2853   1.408       .  A
C2853      C2854   1.417       .  A
C2853      C2856   1.447       .  S
C2854      C2857   1.447       .  S
C2855      N2862   1.156       .  T
C2856      N2861   1.157       .  T
C2857      N2859   1.157       .  T
C2858      N2860   1.157       .  T
C2863      C2864   1.412       .  A
C2863      C2868   1.404       .  A
C2864      C2865   1.421       .  A
C2864      C2869   1.451       .  S
C2865      C2866   1.429       .  A
C2865      C2872   1.451       .  S
C2866      C2867   1.427       .  A
C2867      C2868   1.409       .  A
C2867      C2870   1.452       .  S
C2868      C2871   1.450       .  S
C2869      N2876   1.157       .  T
C2870      N2875   1.158       .  T
C2871      N2873   1.157       .  T
C2872      N2874   1.158       .  T
C2877      C2878   1.422       .  A
C2877      C2882   1.425       .  A
C2878      C2879   1.417       .  A
C2878      C2883   1.444       .  S
C2879      C2880   1.408       .  A
C2879      C2886   1.445       .  S
C2880      C2881   1.412       .  A
C2881      C2882   1.419       .  A
C2881      C2884   1.453       .  S
C2882      C2885   1.448       .  S
C2883      N2890   1.155       .  T
C2884      N2889   1.157       .  T
C2885      N2887   1.157       .  T
C2886      N2888   1.155       .  T
C2891      C2892   1.409       .  A
C2891      C2896   1.409       .  A
C2892      C2893   1.431       .  A
C2892      C2897   1.443       .  S
C2893      C2894   1.422       .  A
C2893      C2900   1.440       .  S
C2894      C2895   1.409       .  A
C2895      C2896   1.398       .  A
C2895      C2898   1.448       .  S
C2896      C2899   1.443       .  S
C2897      N2904   1.157       .  T
C2898      N2903   1.157       .  T
C2899      N2901   1.155       .  T
C2900      N2902   1.156       .  T
C2905      C2906   1.406       .  A
C2905      C2910   1.419       .  A
C2906      C2907   1.408       .  A
C2906      C2911   1.444       .  S
C2907      C2908   1.408       .  A
C2907      C2914   1.439       .  S
C2908      C2909   1.410       .  A
C2909      C2910   1.421       .  A
C2909      C2912   1.448       .  S
C2910      C2913   1.449       .  S
C2912      N2917   1.157       .  T
C2913      N2915   1.157       .  T
C2919      C2920   1.414       .  A
C2919      C2924   1.405       .  A
C2920      C2921   1.420       .  A
C2920      C2925   1.446       .  S
C2921      C2922   1.415       .  A
C2921      C2928   1.449       .  S
C2922      C2923   1.419       .  A
C2923      C2924   1.407       .  A
C2923      C2926   1.452       .  S
C2924      C2927   1.451       .  S
C2925      N2932   1.156       .  T
C2926      N2931   1.157       .  T
C2927      N2929   1.157       .  T
C2928      N2930   1.157       .  T
C2933      C2934   1.429       .  A
C2933      C2938   1.397       .  A
C2934      C2935   1.414       .  A
C2934      C2939   1.452       .  S
C2935      C2936   1.407       .  A
C2935      C2942   1.451       .  S
C2936      C2937   1.436       .  A
C2937      C2938   1.410       .  A
C2937      C2940   1.454       .  S
C2938      C2941   1.453       .  S
C2939      N2946   1.157       .  T
C2940      N2945   1.158       .  T
C2941      N2943   1.157       .  T
C2942      N2944   1.157       .  T
C2947      C2948   1.425       .  A
C2947      C2952   1.403       .  A
C2948      C2949   1.411       .  A
C2948      C2953   1.449       .  S
C2949      C2950   1.402       .  A
C2949      C2956   1.451       .  S
C2950      C2951   1.427       .  A
C2951      C2952   1.412       .  A
C2951      C2954   1.451       .  S
C2952      C2955   1.451       .  S
C2953      N3566   1.156   1_554  T
C2954      N2959   1.157       .  T
C2955      N2957   1.157       .  T
C2956      N3564   1.157       .  T
N2958      C3562   1.157       .  T
N2960      C3559   1.156       .  T
C2961      C2962   1.428       .  A
C2961      C2966   1.401       .  A
C2962      C2963   1.413       .  A
C2962      C2967   1.452       .  S
C2963      C2964   1.403       .  A
C2963      C2970   1.451       .  S
C2964      C2965   1.427       .  A
C2965      C2966   1.411       .  A
C2965      C2968   1.448       .  S
C2966      C2969   1.451       .  S
C2967      N2974   1.157       .  T
C2968      N2973   1.156       .  T
C2969      N2971   1.157       .  T
C2970      N2972   1.157       .  T
C2975      C2976   1.420       .  A
C2975      C2980   1.401       .  A
C2976      C2977   1.423       .  A
C2976      C2981   1.448       .  S
C2977      C2978   1.411       .  A
C2977      C2984   1.450       .  S
C2978      C2979   1.428       .  A
C2979      C2980   1.410       .  A
C2979      C2982   1.448       .  S
C2980      C2983   1.454       .  S
C2981      N2988   1.157       .  T
C2984      N2986   1.157       .  T
C2989      C2990   1.428       .  A
C2989      C2994   1.426       .  A
C2990      C2991   1.416       .  A
C2990      C2995   1.436       .  S
C2991      C2992   1.398       .  A
C2991      C2998   1.449       .  S
C2992      C2993   1.411       .  A
C2993      C2994   1.416       .  A
C2993      C2996   1.451       .  S
C2994      C2997   1.451       .  S
C2995      N3002   1.153       .  T
C2996      N3001   1.157       .  T
C2997      N2999   1.158       .  T
C2998      N3000   1.157       .  T
C3003      C3004   1.408       .  A
C3003      C3008   1.424       .  A
C3004      C3005   1.418       .  A
C3004      C3009   1.450       .  S
C3005      C3006   1.419       .  A
C3005      C3012   1.448       .  S
C3006      C3007   1.401       .  A
C3007      C3008   1.408       .  A
C3007      C3010   1.453       .  S
C3008      C3011   1.446       .  S
C3009      N3016   1.157       .  T
C3010      N3015   1.157       .  T
C3011      N3013   1.154       .  T
C3012      N3014   1.157       .  T
C3017      C3018   1.434       .  A
C3017      C3022   1.410       .  A
C3018      C3019   1.400       .  A
C3018      C3023   1.455       .  S
C3019      C3020   1.397       .  A
C3019      C3026   1.456       .  S
C3020      C3021   1.415       .  A
C3021      C3022   1.420       .  A
C3021      C3024   1.449       .  S
C3022      C3025   1.447       .  S
C3023      N3030   1.157       .  T
C3024      N3029   1.157       .  T
C3025      N3027   1.157       .  T
C3026      N3028   1.157       .  T
N3031      N3032   1.332       .  A
N3031      N3037   1.321       .  A
N3032      C3039   1.364       .  A
N3033      N3035   1.316       .  A
N3033      N3034   1.303       .  A
N3034      C3040   1.330       .  A
N3035      N3036   1.335       .  A
N3035     Mn3060   2.262       .  S
N3036      C3040   1.372       .  A
N3037      N3038   1.309       .  A
N3037     Mn3049   2.167       .  S
N3038      C3039   1.336       .  A
C3039      C3570   1.493       .  S
C3040      C3542   1.507       .  S
N3041      N3047   1.311       .  A
N3041      N3042   1.325       .  A
N3042      C3050   1.353       .  A
N3043      N3044   1.319       .  A
N3043      N3045   1.310       .  A
N3043     Mn3049   2.155       .  S
N3044      C3051   1.345       .  A
N3045      N3046   1.320       .  A
N3045     Mn3071   2.199       .  S
N3046      C3051   1.352       .  A
N3047      N3048   1.319       .  A
N3048      C3050   1.345       .  A
Mn3049    Cl3073   2.434       .  S
C3050      C3612   1.486       .  S
C3051      C3626   1.475       .  S
N3052      N3053   1.334       .  A
N3052      N3058   1.319       .  A
N3052     Mn3060   2.253       .  S
N3053      C3061   1.368       .  A
N3054      N3056   1.324       .  A
N3054      N3055   1.310       .  A
N3055      C3062   1.336       .  A
N3056      N3057   1.332       .  A
N3057      C3062   1.362       .  A
N3058      N3059   1.305       .  A
N3058     Mn3072   2.162   1_556  S
N3059      C3061   1.334       .  A
C3061      C3528   1.491       .  S
C3062      C3553   1.488       .  S
N3063      N3064   1.328       .  A
N3063      N3069   1.309       .  A
N3063     Mn3071   2.213       .  S
N3064      C3074   1.359       .  A
N3065      N3066   1.322       .  A
N3065      N3067   1.312       .  A
N3065     Mn3072   2.180   1_556  S
N3066      C3075   1.345       .  A
N3067      N3068   1.326       .  A
N3068      C3075   1.354       .  A
N3069      N3070   1.322       .  A
N3070      C3074   1.355       .  A
Mn3071    Cl3073   2.605       .  S
C3074      C3595   1.522       .  S
C3075      C3581   1.493       .  S
N3076      N3077   1.325       .  A
N3076      N3082   1.311       .  A
N3076     Mn3105   2.218       .  S
N3077      C3084   1.356       .  A
N3078      N3080   1.311       .  A
N3078      N3079   1.317       .  A
N3079      C3085   1.344       .  A
N3080      N3081   1.333       .  A
N3081      C3085   1.361       .  A
N3082      N3083   1.323       .  A
N3082     Mn3094   2.167       .  S
N3083      C3084   1.347       .  A
C3084      C3511   1.499       .  S
C3085      C3500   1.503       .  S
N3086      N3092   1.318       .  A
N3086      N3087   1.336       .  A
N3087      C3095   1.370       .  A
N3088      N3089   1.307       .  A
N3088      N3090   1.319       .  A
N3088     Mn3094   2.153       .  S
N3089      C3096   1.335       .  A
N3090      N3091   1.336       .  A
N3090     Mn3116   2.266       .  S
N3091      C3096   1.370       .  A
N3092      N3093   1.304       .  A
N3093      C3095   1.332       .  A
Mn3094    Cl3118   2.436       .  S
C3095      C3455   1.517       .  S
C3096      C3430   1.500       .  S
N3097      N3098   1.325       .  A
N3097      N3103   1.306       .  A
N3098      C3106   1.357       .  A
N3099      N3101   1.311       .  A
N3099      N3100   1.322       .  A
N3099     Mn3117   2.189       .  S
N3100      C3107   1.353       .  A
N3101      N3102   1.323       .  A
N3101     Mn3105   2.222       .  S
N3102      C3107   1.358       .  A
N3103      N3104   1.318       .  A
N3104      C3106   1.353       .  A
Mn3105    Cl3118   2.588       .  S
C3106      C3472   1.517       .  S
C3107      C3483   1.524       .  S
N3108      N3109   1.333       .  A
N3108      N3114   1.321       .  A
N3108     Mn3116   2.240       .  S
N3109      C3119   1.362       .  A
N3110      N3111   1.306       .  A
N3110      N3112   1.323       .  A
N3111      C3120   1.331       .  A
N3112      N3113   1.333       .  A
N3113      C3120   1.365       .  A
N3114      N3115   1.309       .  A
N3114     Mn3117   2.178       .  S
N3115      C3119   1.336       .  A
Mn3116    Cl3118   2.636       .  S
Mn3117    Cl3118   2.437       .  S
C3119      C3413   1.480       .  S
C3120      C3444   1.491       .  S
N3121      N3122   1.332       .  A
N3121      N3127   1.324       .  A
N3121     Mn3150   2.270       .  S
N3122      C3129   1.364       .  A
N3123      N3125   1.320       .  A
N3123      N3124   1.308       .  A
N3123     Mn3139   2.164       .  S
N3124      C3130   1.334       .  A
N3125      N3126   1.333       .  A
N3125     Mn3150   2.244       .  S
N3126      C3130   1.363       .  A
N3127      N3128   1.309       .  A
N3127     Mn3139   2.158       .  S
N3128      C3129   1.333       .  A
C3129      C3567   1.491       .  S
C3130      C3427   1.481       .  S
N3131      N3137   1.310       .  A
N3131      N3132   1.325       .  A
N3131     Mn4373   2.217       .  S
N3132      C3140   1.359       .  A
N3133      N3134   1.323       .  A
N3133      N3135   1.307       .  A
N3133     Mn3139   2.176       .  S
N3134      C3141   1.353       .  A
N3135      N3136   1.322       .  A
N3135     Mn4373   2.221       .  S
N3136      C3141   1.360       .  A
N3137      N3138   1.319       .  A
N3137     Mn3139   2.173       .  S
N3138      C3140   1.348       .  A
Mn3139    Cl4375   2.457       .  S
C3140      C3388   1.510       .  S
C3141      C3399   1.524       .  S
N3142      N3143   1.337       .  A
N3142      N3148   1.318       .  A
N3142     Mn4362   2.269       .  S
N3143      C3151   1.372       .  A
N3144      N3146   1.323       .  A
N3144      N3145   1.311       .  A
N3144     Mn3162   2.168       .  S
N3145      C3152   1.336       .  A
N3146      N3147   1.331       .  A
N3146     Mn4362   2.243       .  S
N3147      C3152   1.360       .  A
N3148      N3149   1.301       .  A
N3148     Mn3162   2.140       .  S
N3149      C3151   1.330       .  A
Mn3150     N4354   2.269   1_545  S
Mn3150     N4358   2.243   1_545  S
Mn3150    Cl4375   2.609       .  S
C3151      C3416   1.500       .  S
C3152      C3556   1.492       .  S
N3153      N3154   1.319       .  A
N3153      N3159   1.310       .  A
N3153     Mn3161   2.213       .  S
N3154      C3164   1.357       .  A
N3155      N3156   1.321       .  A
N3155      N3157   1.309       .  A
N3155     Mn3162   2.174       .  S
N3156      C3165   1.346       .  A
N3157      N3158   1.326       .  A
N3157     Mn3161   2.219       .  S
N3158      C3165   1.359       .  A
N3159      N3160   1.323       .  A
N3159     Mn3162   2.166       .  S
N3160      C3164   1.349       .  A
Mn3161     N4343   2.217       .  S
Mn3161     N4347   2.221       .  S
Mn3161    Cl3163   2.586       .  S
Mn3162    Cl3163   2.449       .  S
Cl3163    Mn4351   2.457       .  S
Cl3163    Mn4362   2.609       .  S
C3164      C3371   1.500       .  S
C3165      C3357   1.497       .  S
N3166      N3167   1.328       .  A
N3166      N3172   1.310       .  A
N3166     Mn3195   2.228       .  S
N3167      C3174   1.363       .  A
N3168      N3170   1.312       .  A
N3168      N3169   1.324       .  A
N3168     Mn3184   2.176       .  S
N3169      C3175   1.352       .  A
N3170      N3171   1.322       .  A
N3170     Mn3195   2.241       .  S
N3171      C3175   1.361       .  A
N3172      N3173   1.321       .  A
N3172     Mn3184   2.188       .  S
N3173      C3174   1.349       .  A
C3174      C3346   1.513       .  S
C3175      C3329   1.519       .  S
N3176      N3182   1.322       .  A
N3176      N3177   1.328       .  A
N3176     Mn3206   2.224   1_545  S
N3177      C3185   1.356       .  A
N3178      N3179   1.303       .  A
N3178      N3180   1.320       .  A
N3178     Mn3184   2.127       .  S
N3179      C3186   1.326       .  A
N3180      N3181   1.335       .  A
N3180     Mn3206   2.281   1_545  S
N3181      C3186   1.370       .  A
N3182      N3183   1.314       .  A
N3182     Mn3184   2.196       .  S
N3183      C3185   1.342       .  A
Mn3184    Cl3208   2.466   1_545  S
C3185      C3458   1.478       .  S
C3186      C3539   1.484       .  S
N3187      N3188   1.326       .  A
N3187      N3193   1.311       .  A
N3187     Mn4407   2.223       .  S
N3188      C3196   1.358       .  A
N3189      N3191   1.312       .  A
N3189      N3190   1.322       .  A
N3189     Mn3207   2.156       .  S
N3190      C3197   1.344       .  A
N3191      N3192   1.325       .  A
N3191     Mn4407   2.255       .  S
N3192      C3197   1.363       .  A
N3193      N3194   1.319       .  A
N3193     Mn3207   2.165       .  S
N3194      C3196   1.346       .  A
Mn3195     N4399   2.223   1_545  S
Mn3195     N4403   2.255   1_545  S
Mn3195    Cl3208   2.566   1_545  S
C3196      C3301   1.488       .  S
C3197      C3315   1.502       .  S
N3198      N3199   1.334       .  A
N3198      N3204   1.319       .  A
N3198     Mn4418   2.246       .  S
N3199      C3209   1.365       .  A
N3200      N3201   1.308       .  A
N3200      N3202   1.321       .  A
N3200     Mn3207   2.152       .  S
N3201      C3210   1.333       .  A
N3202      N3203   1.332       .  A
N3202     Mn4418   2.260       .  S
N3203      C3210   1.364       .  A
N3204      N3205   1.307       .  A
N3204     Mn3207   2.161       .  S
N3205      C3209   1.333       .  A
Mn3206     N4410   2.246       .  S
Mn3206     N4414   2.260       .  S
Mn3206    Cl3208   2.620       .  S
Mn3207    Cl4420   2.462       .  S
Cl3208    Mn4419   2.462       .  S
C3209      C3525   1.480       .  S
C3210      C3441   1.488       .  S
N3211      N3212   1.335       .  A
N3211      N3217   1.315       .  A
N3212      C3219   1.373       .  A
N3213      N3215   1.318       .  A
N3213      N3214   1.316       .  A
N3214      C3220   1.345       .  A
N3215      N3216   1.332       .  A
N3215     Mn3240   2.238       .  S
N3216      C3220   1.363       .  A
N3217      N3218   1.304       .  A
N3217     Mn3229   2.163       .  S
N3218      C3219   1.331       .  A
C3219      C3623   1.498       .  S
C3220      C3514   1.494       .  S
N3221      N3227   1.313       .  A
N3221      N3222   1.318       .  A
N3222      C3230   1.358       .  A
N3223      N3224   1.321       .  A
N3223      N3225   1.306       .  A
N3223     Mn3229   2.177       .  S
N3224      C3231   1.351       .  A
N3225      N3226   1.324       .  A
N3225     Mn3251   2.218       .  S
N3226      C3231   1.363       .  A
N3227      N3228   1.322       .  A
N3228      C3230   1.352       .  A
Mn3229    Cl3253   2.446       .  S
C3230      C3385   1.501       .  S
C3231      C3402   1.525       .  S
N3232      N3233   1.339       .  A
N3232      N3238   1.319       .  A
N3232     Mn3240   2.270       .  S
N3233      C3241   1.371       .  A
N3234      N3236   1.319       .  A
N3234      N3235   1.311       .  A
N3234     Mn3252   2.175       .  S
N3235      C3242   1.338       .  A
N3236      N3237   1.333       .  A
N3237      C3242   1.364       .  A
N3238      N3239   1.304       .  A
N3239      C3241   1.340       .  A
C3241      C3497   1.509       .  S
C3242      C3609   1.494       .  S
N3243      N3244   1.321       .  A
N3243      N3249   1.313       .  A
N3243     Mn3251   2.217       .  S
N3244      C3254   1.357       .  A
N3245      N3246   1.322       .  A
N3245      N3247   1.310       .  A
N3246      C3255   1.354       .  A
N3247      N3248   1.325       .  A
N3248      C3255   1.361       .  A
N3249      N3250   1.324       .  A
N3249     Mn3252   2.185       .  S
N3250      C3254   1.350       .  A
Mn3251    Cl3253   2.588       .  S
Mn3252    Cl3253   2.445       .  S
C3254      C3343   1.498       .  S
C3255      C3332   1.512       .  S
N3256      N3257   1.326       .  A
N3256      N3262   1.310       .  A
N3257      C3264   1.362       .  A
N3258      N3260   1.314       .  A
N3258      N3259   1.323       .  A
N3258     Mn3274   2.187   1_655  S
N3259      C3265   1.349       .  A
N3260      N3261   1.326       .  A
N3260     Mn3285   2.245   1_655  S
N3261      C3265   1.361       .  A
N3262      N3263   1.320       .  A
N3263      C3264   1.351       .  A
C3264      C3374   1.508       .  S
C3265      C3360   1.500       .  S
N3266      N3272   1.319       .  A
N3266      N3267   1.334       .  A
N3266     Mn3296   2.277   1_655  S
N3267      C3275   1.369       .  A
N3268      N3269   1.310       .  A
N3268      N3270   1.320       .  A
N3269      C3276   1.339       .  A
N3270      N3271   1.331       .  A
N3271      C3276   1.368       .  A
N3272      N3273   1.311       .  A
N3272     Mn3274   2.164   1_655  S
N3273      C3275   1.339       .  A
Mn3274    Cl3298   2.484       .  S
C3275      C3486   1.495       .  S
C3276      C3598   1.494       .  S
N3277      N3278   1.326       .  A
N3277      N3283   1.311       .  A
N3277     Mn3285   2.221   1_655  S
N3278      C3286   1.358       .  A
N3279      N3281   1.313       .  A
N3279      N3280   1.323       .  A
N3280      C3287   1.345       .  A
N3281      N3282   1.325       .  A
N3282      C3287   1.362       .  A
N3283      N3284   1.318       .  A
N3283     Mn3297   2.172       .  S
N3284      C3286   1.348       .  A
Mn3285    Cl3298   2.574       .  S
C3286      C3304   1.492       .  S
C3287      C3318   1.504       .  S
N3288      N3289   1.337       .  A
N3288      N3294   1.318       .  A
N3289      C3299   1.370       .  A
N3290      N3291   1.311       .  A
N3290      N3292   1.320       .  A
N3290     Mn3297   2.190       .  S
N3291      C3300   1.340       .  A
N3292      N3293   1.332       .  A
N3292     Mn3296   2.240   1_655  S
N3293      C3300   1.363       .  A
N3294      N3295   1.309       .  A
N3295      C3299   1.334       .  A
Mn3296    Cl3298   2.626       .  S
Mn3297    Cl3298   2.464   1_655  S
C3299      C3584   1.502       .  S
C3300      C3469   1.488       .  S
C3301      C3302   1.409       .  A
C3301      C3306   1.413       .  A
C3302      C3303   1.411       .  A
C3302      C3307   1.451       .  S
C3303      C3304   1.416       .  A
C3303      C3310   1.446       .  S
C3304      C3305   1.409       .  A
C3305      C3306   1.415       .  A
C3305      C3308   1.449       .  S
C3306      C3309   1.446       .  S
C3307      N3314   1.157       .  T
C3308      N4525   1.157       .  T
C3309      N4523   1.156       .  T
C3310      N3312   1.156       .  T
N3311      C4521   1.156   1_545  T
N3313      C4520   1.157   1_545  T
C3315      C3316   1.412       .  A
C3315      C3320   1.417       .  A
C3316      C3317   1.420       .  A
C3316      C3321   1.449       .  S
C3317      C3318   1.417       .  A
C3317      C3324   1.451       .  S
C3318      C3319   1.413       .  A
C3319      C3320   1.419       .  A
C3319      C3322   1.448       .  S
C3320      C3323   1.451       .  S
C3321      N3328   1.157       .  T
C3322      N3327   1.157       .  T
C3323      N3325   1.157       .  T
C3324      N3326   1.157       .  T
C3329      C3330   1.411       .  A
C3329      C3334   1.422       .  A
C3330      C3331   1.410       .  A
C3330      C3335   1.438       .  S
C3331      C3332   1.409       .  A
C3331      C3338   1.441       .  S
C3332      C3333   1.415       .  A
C3333      C3334   1.422       .  A
C3333      C3336   1.451       .  S
C3334      C3337   1.447       .  S
C3335      N3342   1.153       .  T
C3336      N3341   1.158       .  T
C3337      N3339   1.157       .  T
C3338      N3340   1.155       .  T
C3343      C3344   1.402       .  A
C3343      C3348   1.417       .  A
C3344      C3345   1.408       .  A
C3344      C3349   1.450       .  S
C3345      C3346   1.413       .  A
C3345      C3352   1.429       .  S
C3346      C3347   1.421       .  A
C3347      C3348   1.423       .  A
C3347      C3350   1.450       .  S
C3348      C3351   1.449       .  S
C3349      N3356   1.156   1_545  T
C3350      N3355   1.157       .  T
C3351      N3353   1.157       .  T
C3352      N4566   1.150   1_545  T
N3354      C4564   1.150       .  T
C3357      C3358   1.417       .  A
C3357      C3362   1.409       .  A
C3358      C3359   1.419       .  A
C3358      C3363   1.450       .  S
C3359      C3360   1.412       .  A
C3359      C3366   1.449       .  S
C3360      C3361   1.410       .  A
C3361      C3362   1.415       .  A
C3361      C3364   1.443       .  S
C3362      C3365   1.447       .  S
C3363      N3370   1.157       .  T
C3364      N3369   1.155       .  T
C3365      N3367   1.156       .  T
C3366      N3368   1.157       .  T
C3371      C3372   1.404       .  A
C3371      C3376   1.417       .  A
C3372      C3373   1.405       .  A
C3372      C3377   1.445       .  S
C3373      C3374   1.413       .  A
C3373      C3380   1.433       .  S
C3374      C3375   1.421       .  A
C3375      C3376   1.422       .  A
C3375      C3378   1.451       .  S
C3376      C3379   1.450       .  S
C3377      N3384   1.154       .  T
C3378      N3383   1.157       .  T
C3379      N3381   1.157       .  T
C3380      N3382   1.151       .  T
C3385      C3386   1.413       .  A
C3385      C3390   1.403       .  A
C3386      C3387   1.419       .  A
C3386      C3391   1.448       .  S
C3387      C3388   1.426       .  A
C3387      C3394   1.452       .  S
C3388      C3389   1.419       .  A
C3389      C3390   1.407       .  A
C3389      C3392   1.442       .  S
C3390      C3393   1.446       .  S
C3391      N3398   1.156       .  T
C3392      N3397   1.156   1_545  T
C3393      N3395   1.155       .  T
C3394      N3396   1.158       .  T
C3399      C3400   1.424       .  A
C3399      C3404   1.417       .  A
C3400      C3401   1.424       .  A
C3400      C3405   1.451       .  S
C3401      C3402   1.423       .  A
C3401      C3408   1.452       .  S
C3402      C3403   1.416       .  A
C3403      C3404   1.415       .  A
C3403      C3406   1.438       .  S
C3404      C3407   1.445       .  S
C3405      N3412   1.158       .  T
C3406      N3411   1.153       .  T
C3407      N3409   1.155       .  T
C3408      N3410   1.158       .  T
C3413      C3414   1.400       .  A
C3413      C3418   1.414       .  A
C3414      C3415   1.407       .  A
C3414      C3419   1.452       .  S
C3415      C3416   1.426       .  A
C3415      C3422   1.454       .  S
C3416      C3417   1.415       .  A
C3417      C3418   1.421       .  A
C3417      C3420   1.448       .  S
C3418      C3421   1.445       .  S
C3419      N3426   1.157       .  T
C3420      N3425   1.157       .  T
C3422      N3424   1.157       .  T
C3427      C3428   1.414       .  A
C3427      C3432   1.405       .  A
C3428      C3429   1.422       .  A
C3428      C3433   1.448       .  S
C3429      C3430   1.416       .  A
C3429      C3436   1.447       .  S
C3430      C3431   1.423       .  A
C3431      C3432   1.407       .  A
C3431      C3434   1.452       .  S
C3432      C3435   1.455       .  S
C3433      N3440   1.157       .  T
C3434      N3439   1.157       .  T
C3435      N3437   1.157       .  T
C3436      N3438   1.157       .  T
C3441      C3442   1.428       .  A
C3441      C3446   1.400       .  A
C3442      C3443   1.411       .  A
C3442      C3447   1.451       .  S
C3443      C3444   1.401       .  A
C3443      C3450   1.451       .  S
C3444      C3445   1.431       .  A
C3445      C3446   1.410       .  A
C3445      C3448   1.452       .  S
C3446      C3449   1.452       .  S
C3447      N3454   1.157       .  T
C3448      N3453   1.157   1_556  T
C3449      N3451   1.157       .  T
C3450      N3452   1.157       .  T
C3455      C3456   1.441       .  A
C3455      C3460   1.418       .  A
C3456      C3457   1.409       .  A
C3456      C3461   1.450       .  S
C3457      C3458   1.394       .  A
C3457      C3464   1.454       .  S
C3458      C3459   1.408       .  A
C3459      C3460   1.417       .  A
C3459      C3462   1.447       .  S
C3460      C3463   1.447       .  S
C3461      N3468   1.156       .  T
C3462      N3467   1.157       .  T
C3463      N3465   1.157       .  T
C3464      N3466   1.157       .  T
C3469      C3470   1.412       .  A
C3469      C3474   1.404       .  A
C3470      C3471   1.421       .  A
C3470      C3475   1.451       .  S
C3471      C3472   1.429       .  A
C3471      C3478   1.451       .  S
C3472      C3473   1.427       .  A
C3473      C3474   1.409       .  A
C3473      C3476   1.452       .  S
C3474      C3477   1.450       .  S
C3475      N3482   1.157       .  T
C3476      N3481   1.158       .  T
C3477      N3479   1.157       .  T
C3478      N3480   1.158       .  T
C3483      C3484   1.422       .  A
C3483      C3488   1.425       .  A
C3484      C3485   1.417       .  A
C3484      C3489   1.444       .  S
C3485      C3486   1.408       .  A
C3485      C3492   1.445       .  S
C3486      C3487   1.412       .  A
C3487      C3488   1.419       .  A
C3487      C3490   1.453       .  S
C3488      C3491   1.448       .  S
C3489      N3496   1.155       .  T
C3490      N3495   1.157       .  T
C3491      N3493   1.157       .  T
C3492      N3494   1.155       .  T
C3497      C3498   1.409       .  A
C3497      C3502   1.409       .  A
C3498      C3499   1.431       .  A
C3498      C3503   1.443       .  S
C3499      C3500   1.422       .  A
C3499      C3506   1.440       .  S
C3500      C3501   1.409       .  A
C3501      C3502   1.398       .  A
C3501      C3504   1.448       .  S
C3502      C3505   1.443       .  S
C3503      N3510   1.157       .  T
C3504      N3509   1.157       .  T
C3505      N3507   1.155       .  T
C3506      N3508   1.156       .  T
C3511      C3512   1.406       .  A
C3511      C3516   1.419       .  A
C3512      C3513   1.408       .  A
C3512      C3517   1.444       .  S
C3513      C3514   1.408       .  A
C3513      C3520   1.439       .  S
C3514      C3515   1.410       .  A
C3515      C3516   1.421       .  A
C3515      C3518   1.448       .  S
C3516      C3519   1.449       .  S
C3518      N3523   1.157       .  T
C3519      N3521   1.157       .  T
C3525      C3526   1.414       .  A
C3525      C3530   1.405       .  A
C3526      C3527   1.420       .  A
C3526      C3531   1.446       .  S
C3527      C3528   1.415       .  A
C3527      C3534   1.449       .  S
C3528      C3529   1.419       .  A
C3529      C3530   1.407       .  A
C3529      C3532   1.452       .  S
C3530      C3533   1.451       .  S
C3531      N3538   1.156       .  T
C3532      N3537   1.157       .  T
C3533      N3535   1.157       .  T
C3534      N3536   1.157       .  T
C3539      C3540   1.429       .  A
C3539      C3544   1.397       .  A
C3540      C3541   1.414       .  A
C3540      C3545   1.452       .  S
C3541      C3542   1.407       .  A
C3541      C3548   1.451       .  S
C3542      C3543   1.436       .  A
C3543      C3544   1.410       .  A
C3543      C3546   1.454       .  S
C3544      C3547   1.453       .  S
C3545      N3552   1.157       .  T
C3546      N3551   1.158       .  T
C3547      N3549   1.157       .  T
C3548      N3550   1.157       .  T
C3553      C3554   1.425       .  A
C3553      C3558   1.403       .  A
C3554      C3555   1.411       .  A
C3554      C3559   1.449       .  S
C3555      C3556   1.402       .  A
C3555      C3562   1.451       .  S
C3556      C3557   1.427       .  A
C3557      C3558   1.412       .  A
C3557      C3560   1.451       .  S
C3558      C3561   1.451       .  S
C3560      N3565   1.157       .  T
C3561      N3563   1.157       .  T
C3567      C3568   1.428       .  A
C3567      C3572   1.401       .  A
C3568      C3569   1.413       .  A
C3568      C3573   1.452       .  S
C3569      C3570   1.403       .  A
C3569      C3576   1.451       .  S
C3570      C3571   1.427       .  A
C3571      C3572   1.411       .  A
C3571      C3574   1.448       .  S
C3572      C3575   1.451       .  S
C3573      N3580   1.157       .  T
C3574      N3579   1.156       .  T
C3575      N3577   1.157       .  T
C3576      N3578   1.157       .  T
C3581      C3582   1.420       .  A
C3581      C3586   1.401       .  A
C3582      C3583   1.423       .  A
C3582      C3587   1.448       .  S
C3583      C3584   1.411       .  A
C3583      C3590   1.450       .  S
C3584      C3585   1.428       .  A
C3585      C3586   1.410       .  A
C3585      C3588   1.448       .  S
C3586      C3589   1.454       .  S
C3587      N3594   1.157       .  T
C3590      N3592   1.157       .  T
C3595      C3596   1.428       .  A
C3595      C3600   1.426       .  A
C3596      C3597   1.416       .  A
C3596      C3601   1.436       .  S
C3597      C3598   1.398       .  A
C3597      C3604   1.449       .  S
C3598      C3599   1.411       .  A
C3599      C3600   1.416       .  A
C3599      C3602   1.451       .  S
C3600      C3603   1.451       .  S
C3601      N3608   1.153       .  T
C3602      N3607   1.157       .  T
C3603      N3605   1.158       .  T
C3604      N3606   1.157       .  T
C3609      C3610   1.408       .  A
C3609      C3614   1.424       .  A
C3610      C3611   1.418       .  A
C3610      C3615   1.450       .  S
C3611      C3612   1.419       .  A
C3611      C3618   1.448       .  S
C3612      C3613   1.401       .  A
C3613      C3614   1.408       .  A
C3613      C3616   1.453       .  S
C3614      C3617   1.446       .  S
C3615      N3622   1.157       .  T
C3616      N3621   1.157       .  T
C3617      N3619   1.154       .  T
C3618      N3620   1.157       .  T
C3623      C3624   1.434       .  A
C3623      C3628   1.410       .  A
C3624      C3625   1.400       .  A
C3624      C3629   1.455       .  S
C3625      C3626   1.397       .  A
C3625      C3632   1.456       .  S
C3626      C3627   1.415       .  A
C3627      C3628   1.420       .  A
C3627      C3630   1.449       .  S
C3628      C3631   1.447       .  S
C3629      N3636   1.157       .  T
C3630      N3635   1.157       .  T
C3631      N3633   1.157       .  T
C3632      N3634   1.157       .  T
N3637      N3638   1.332       .  A
N3637      N3643   1.321       .  A
N3637     Mn4272   2.254   1_554  S
N3638      C3645   1.364       .  A
N3639      N3641   1.316       .  A
N3639      N3640   1.303       .  A
N3639     Mn4261   2.140       .  S
N3640      C3646   1.330       .  A
N3641      N3642   1.335       .  A
N3641     Mn3666   2.262       .  S
N3642      C3646   1.372       .  A
N3643      N3644   1.309       .  A
N3643     Mn3655   2.167       .  S
N3644      C3645   1.336       .  A
C3645      C4176   1.493       .  S
C3646      C4148   1.507       .  S
N3647      N3653   1.311       .  A
N3647      N3648   1.325       .  A
N3647     Mn4283   2.207       .  S
N3648      C3656   1.353       .  A
N3649      N3650   1.319       .  A
N3649      N3651   1.310       .  A
N3649     Mn3655   2.155       .  S
N3650      C3657   1.345       .  A
N3651      N3652   1.320       .  A
N3651     Mn3677   2.199       .  S
N3652      C3657   1.352       .  A
N3653      N3654   1.319       .  A
N3653     Mn4261   2.170       .  S
N3654      C3656   1.345       .  A
Mn3655     N4245   2.140   1_554  S
Mn3655     N4259   2.170   1_554  S
Mn3655    Cl3679   2.434       .  S
C3656      C4218   1.486       .  S
C3657      C4232   1.475       .  S
N3658      N3659   1.334       .  A
N3658      N3664   1.319       .  A
N3658     Mn3666   2.253       .  S
N3659      C3667   1.368       .  A
N3660      N3662   1.324       .  A
N3660      N3661   1.310       .  A
N3660     Mn4284   2.167       .  S
N3661      C3668   1.336       .  A
N3662      N3663   1.332       .  A
N3662     Mn4272   2.259   1_554  S
N3663      C3668   1.362       .  A
N3664      N3665   1.305       .  A
N3664     Mn3678   2.162       .  S
N3665      C3667   1.334       .  A
Mn3666     N4243   2.254       .  S
Mn3666     N4268   2.259       .  S
Mn3666    Cl4285   2.616       .  S
C3667      C4134   1.491       .  S
C3668      C4159   1.488       .  S
N3669      N3670   1.328       .  A
N3669      N3675   1.309       .  A
N3669     Mn3677   2.213       .  S
N3670      C3680   1.359       .  A
N3671      N3672   1.322       .  A
N3671      N3673   1.312       .  A
N3671     Mn3678   2.180       .  S
N3672      C3681   1.345       .  A
N3673      N3674   1.326       .  A
N3673     Mn4283   2.210       .  S
N3674      C3681   1.354       .  A
N3675      N3676   1.322       .  A
N3675     Mn4284   2.202       .  S
N3676      C3680   1.355       .  A
Mn3677     N4253   2.207   1_554  S
Mn3677     N4279   2.210   1_554  S
Mn3677    Cl3679   2.605       .  S
Mn3678     N4266   2.167       .  S
Mn3678     N4281   2.202       .  S
Mn3678    Cl4285   2.433       .  S
Cl3679    Mn4272   2.616   1_554  S
Cl3679    Mn4284   2.433       .  S
C3680      C4201   1.522       .  S
C3681      C4187   1.493       .  S
N3682      N3683   1.325       .  A
N3682      N3688   1.311       .  A
N3682     Mn3711   2.218       .  S
N3683      C3690   1.356       .  A
N3684      N3686   1.311       .  A
N3684      N3685   1.317       .  A
N3684     Mn4306   2.169       .  S
N3685      C3691   1.344       .  A
N3686      N3687   1.333       .  A
N3686     Mn4317   2.232       .  S
N3687      C3691   1.361       .  A
N3688      N3689   1.323       .  A
N3688     Mn3700   2.167       .  S
N3689      C3690   1.347       .  A
C3690      C4117   1.499       .  S
C3691      C4106   1.503       .  S
N3692      N3698   1.318       .  A
N3692      N3693   1.336       .  A
N3692     Mn4328   2.264       .  S
N3693      C3701   1.370       .  A
N3694      N3695   1.307       .  A
N3694      N3696   1.319       .  A
N3694     Mn3700   2.153       .  S
N3695      C3702   1.335       .  A
N3696      N3697   1.336       .  A
N3696     Mn3722   2.266       .  S
N3697      C3702   1.370       .  A
N3698      N3699   1.304       .  A
N3698     Mn4306   2.157       .  S
N3699      C3701   1.332       .  A
Mn3700     N4290   2.169   1_554  S
Mn3700     N4304   2.157   1_554  S
Mn3700    Cl3724   2.436       .  S
C3701      C4061   1.517       .  S
C3702      C4036   1.500       .  S
N3703      N3704   1.325       .  A
N3703      N3709   1.306       .  A
N3703     Mn4317   2.190       .  S
N3704      C3712   1.357       .  A
N3705      N3707   1.311       .  A
N3705      N3706   1.322       .  A
N3705     Mn3723   2.189       .  S
N3706      C3713   1.353       .  A
N3707      N3708   1.323       .  A
N3707     Mn3711   2.222       .  S
N3708      C3713   1.358       .  A
N3709      N3710   1.318       .  A
N3709     Mn4329   2.192       .  S
N3710      C3712   1.353       .  A
Mn3711     N4292   2.232   1_554  S
Mn3711     N4309   2.190   1_554  S
Mn3711    Cl3724   2.588       .  S
C3712      C4078   1.517       .  S
C3713      C4089   1.524       .  S
N3714      N3715   1.333       .  A
N3714      N3720   1.321       .  A
N3714     Mn3722   2.240       .  S
N3715      C3725   1.362       .  A
N3716      N3717   1.306       .  A
N3716      N3718   1.323       .  A
N3716     Mn4329   2.159       .  S
N3717      C3726   1.331       .  A
N3718      N3719   1.333       .  A
N3718     Mn4328   2.273       .  S
N3719      C3726   1.365       .  A
N3720      N3721   1.309       .  A
N3720     Mn3723   2.178       .  S
N3721      C3725   1.336       .  A
Mn3722     N4298   2.264   1_554  S
Mn3722     N4324   2.273   1_554  S
Mn3722    Cl3724   2.636       .  S
Mn3723     N4315   2.192   1_554  S
Mn3723     N4322   2.159   1_554  S
Mn3723    Cl3724   2.437       .  S
C3725      C4019   1.480       .  S
C3726      C4050   1.491       .  S
N3727      N3728   1.332       .  A
N3727      N3733   1.324       .  A
N3727     Mn3756   2.270       .  S
N3728      C3735   1.364       .  A
N3729      N3731   1.320       .  A
N3729      N3730   1.308       .  A
N3729     Mn3745   2.164       .  S
N3730      C3736   1.334       .  A
N3731      N3732   1.333       .  A
N3731     Mn3756   2.244       .  S
N3732      C3736   1.363       .  A
N3733      N3734   1.309       .  A
N3733     Mn3745   2.158       .  S
N3734      C3735   1.333       .  A
C3735      C4173   1.491       .  S
C3736      C4033   1.481       .  S
N3737      N3743   1.310       .  A
N3737      N3738   1.325       .  A
N3738      C3746   1.359       .  A
N3739      N3740   1.323       .  A
N3739      N3741   1.307       .  A
N3739     Mn3745   2.176       .  S
N3740      C3747   1.353       .  A
N3741      N3742   1.322       .  A
N3742      C3747   1.360       .  A
N3743      N3744   1.319       .  A
N3743     Mn3745   2.173       .  S
N3744      C3746   1.348       .  A
C3746      C3994   1.510       .  S
C3747      C4005   1.524       .  S
N3748      N3749   1.337       .  A
N3748      N3754   1.318       .  A
N3749      C3757   1.372       .  A
N3750      N3752   1.323       .  A
N3750      N3751   1.311       .  A
N3750     Mn3768   2.168       .  S
N3751      C3758   1.336       .  A
N3752      N3753   1.331       .  A
N3753      C3758   1.360       .  A
N3754      N3755   1.301       .  A
N3754     Mn3768   2.140       .  S
N3755      C3757   1.330       .  A
C3757      C4022   1.500       .  S
C3758      C4162   1.492       .  S
N3759      N3760   1.319       .  A
N3759      N3765   1.310       .  A
N3759     Mn3767   2.213   1_565  S
N3760      C3770   1.357       .  A
N3761      N3762   1.321       .  A
N3761      N3763   1.309       .  A
N3761     Mn3768   2.174       .  S
N3762      C3771   1.346       .  A
N3763      N3764   1.326       .  A
N3763     Mn3767   2.219   1_565  S
N3764      C3771   1.359       .  A
N3765      N3766   1.323       .  A
N3765     Mn3768   2.166       .  S
N3766      C3770   1.349       .  A
Mn3767    Cl3769   2.586       .  S
Mn3768    Cl3769   2.449   1_565  S
C3770      C3977   1.500       .  S
C3771      C3963   1.497       .  S
N3772      N3773   1.328       .  A
N3772      N3778   1.310       .  A
N3772     Mn3801   2.228       .  S
N3773      C3780   1.363       .  A
N3774      N3776   1.312       .  A
N3774      N3775   1.324       .  A
N3774     Mn3790   2.176       .  S
N3775      C3781   1.352       .  A
N3776      N3777   1.322       .  A
N3776     Mn3801   2.241       .  S
N3777      C3781   1.361       .  A
N3778      N3779   1.321       .  A
N3778     Mn3790   2.188       .  S
N3779      C3780   1.349       .  A
C3780      C3952   1.513       .  S
C3781      C3935   1.519       .  S
N3782      N3788   1.322       .  A
N3782      N3783   1.328       .  A
N3782     Mn3812   2.224       .  S
N3783      C3791   1.356       .  A
N3784      N3785   1.303       .  A
N3784      N3786   1.320       .  A
N3784     Mn3790   2.127       .  S
N3785      C3792   1.326       .  A
N3786      N3787   1.335       .  A
N3786     Mn3812   2.281       .  S
N3787      C3792   1.370       .  A
N3788      N3789   1.314       .  A
N3788     Mn3790   2.196       .  S
N3789      C3791   1.342       .  A
Mn3790    Cl3814   2.466       .  S
C3791      C4064   1.478       .  S
C3792      C4145   1.484       .  S
N3793      N3794   1.326       .  A
N3793      N3799   1.311       .  A
N3794      C3802   1.358       .  A
N3795      N3797   1.312       .  A
N3795      N3796   1.322       .  A
N3795     Mn3813   2.156       .  S
N3796      C3803   1.344       .  A
N3797      N3798   1.325       .  A
N3798      C3803   1.363       .  A
N3799      N3800   1.319       .  A
N3799     Mn3813   2.165       .  S
N3800      C3802   1.346       .  A
Mn3801    Cl3814   2.566       .  S
C3802      C3907   1.488       .  S
C3803      C3921   1.502       .  S
N3804      N3805   1.334       .  A
N3804      N3810   1.319       .  A
N3805      C3815   1.365       .  A
N3806      N3807   1.308       .  A
N3806      N3808   1.321       .  A
N3806     Mn3813   2.152       .  S
N3807      C3816   1.333       .  A
N3808      N3809   1.332       .  A
N3809      C3816   1.364       .  A
N3810      N3811   1.307       .  A
N3810     Mn3813   2.161       .  S
N3811      C3815   1.333       .  A
Mn3812    Cl3814   2.620       .  S
C3815      C4131   1.480       .  S
C3816      C4047   1.488       .  S
N3817      N3818   1.335       .  A
N3817      N3823   1.315       .  A
N3818      C3825   1.373       .  A
N3819      N3821   1.318       .  A
N3819      N3820   1.316       .  A
N3820      C3826   1.345       .  A
N3821      N3822   1.332       .  A
N3821     Mn3846   2.238       .  S
N3822      C3826   1.363       .  A
N3823      N3824   1.304       .  A
N3823     Mn3835   2.163       .  S
N3824      C3825   1.331       .  A
C3825      C4229   1.498       .  S
C3826      C4120   1.494       .  S
N3827      N3833   1.313       .  A
N3827      N3828   1.318       .  A
N3828      C3836   1.358       .  A
N3829      N3830   1.321       .  A
N3829      N3831   1.306       .  A
N3829     Mn3835   2.177       .  S
N3830      C3837   1.351       .  A
N3831      N3832   1.324       .  A
N3831     Mn3857   2.218       .  S
N3832      C3837   1.363       .  A
N3833      N3834   1.322       .  A
N3834      C3836   1.352       .  A
Mn3835    Cl3859   2.446       .  S
C3836      C3991   1.501       .  S
C3837      C4008   1.525       .  S
N3838      N3839   1.339       .  A
N3838      N3844   1.319       .  A
N3838     Mn3846   2.270       .  S
N3839      C3847   1.371       .  A
N3840      N3842   1.319       .  A
N3840      N3841   1.311       .  A
N3840     Mn3858   2.175       .  S
N3841      C3848   1.338       .  A
N3842      N3843   1.333       .  A
N3843      C3848   1.364       .  A
N3844      N3845   1.304       .  A
N3845      C3847   1.340       .  A
C3847      C4103   1.509       .  S
C3848      C4215   1.494       .  S
N3849      N3850   1.321       .  A
N3849      N3855   1.313       .  A
N3849     Mn3857   2.217       .  S
N3850      C3860   1.357       .  A
N3851      N3852   1.322       .  A
N3851      N3853   1.310       .  A
N3852      C3861   1.354       .  A
N3853      N3854   1.325       .  A
N3854      C3861   1.361       .  A
N3855      N3856   1.324       .  A
N3855     Mn3858   2.185       .  S
N3856      C3860   1.350       .  A
Mn3857    Cl3859   2.588       .  S
Mn3858    Cl3859   2.445       .  S
C3860      C3949   1.498       .  S
C3861      C3938   1.512       .  S
N3862      N3863   1.326       .  A
N3862      N3868   1.310       .  A
N3863      C3870   1.362       .  A
N3864      N3866   1.314       .  A
N3864      N3865   1.323       .  A
N3864     Mn3880   2.187   1_655  S
N3865      C3871   1.349       .  A
N3866      N3867   1.326       .  A
N3866     Mn3891   2.245   1_655  S
N3867      C3871   1.361       .  A
N3868      N3869   1.320       .  A
N3869      C3870   1.351       .  A
C3870      C3980   1.508       .  S
C3871      C3966   1.500       .  S
N3872      N3878   1.319       .  A
N3872      N3873   1.334       .  A
N3872     Mn3902   2.277   1_655  S
N3873      C3881   1.369       .  A
N3874      N3875   1.310       .  A
N3874      N3876   1.320       .  A
N3875      C3882   1.339       .  A
N3876      N3877   1.331       .  A
N3877      C3882   1.368       .  A
N3878      N3879   1.311       .  A
N3878     Mn3880   2.164   1_655  S
N3879      C3881   1.339       .  A
Mn3880    Cl3904   2.484       .  S
C3881      C4092   1.495       .  S
C3882      C4204   1.494       .  S
N3883      N3884   1.326       .  A
N3883      N3889   1.311       .  A
N3883     Mn3891   2.221   1_655  S
N3884      C3892   1.358       .  A
N3885      N3887   1.313       .  A
N3885      N3886   1.323       .  A
N3886      C3893   1.345       .  A
N3887      N3888   1.325       .  A
N3888      C3893   1.362       .  A
N3889      N3890   1.318       .  A
N3889     Mn3903   2.172       .  S
N3890      C3892   1.348       .  A
Mn3891    Cl3904   2.574       .  S
C3892      C3910   1.492       .  S
C3893      C3924   1.504       .  S
N3894      N3895   1.337       .  A
N3894      N3900   1.318       .  A
N3895      C3905   1.370       .  A
N3896      N3897   1.311       .  A
N3896      N3898   1.320       .  A
N3896     Mn3903   2.190       .  S
N3897      C3906   1.340       .  A
N3898      N3899   1.332       .  A
N3898     Mn3902   2.240   1_655  S
N3899      C3906   1.363       .  A
N3900      N3901   1.309       .  A
N3901      C3905   1.334       .  A
Mn3902    Cl3904   2.626       .  S
Mn3903    Cl3904   2.464   1_655  S
C3905      C4190   1.502       .  S
C3906      C4075   1.488       .  S
C3907      C3908   1.409       .  A
C3907      C3912   1.413       .  A
C3908      C3909   1.411       .  A
C3908      C3913   1.451       .  S
C3909      C3910   1.416       .  A
C3909      C3916   1.446       .  S
C3910      C3911   1.409       .  A
C3911      C3912   1.415       .  A
C3911      C3914   1.449       .  S
C3912      C3915   1.446       .  S
C3913      N3920   1.157       .  T
C3916      N3918   1.156       .  T
C3921      C3922   1.412       .  A
C3921      C3926   1.417       .  A
C3922      C3923   1.420       .  A
C3922      C3927   1.449       .  S
C3923      C3924   1.417       .  A
C3923      C3930   1.451       .  S
C3924      C3925   1.413       .  A
C3925      C3926   1.419       .  A
C3925      C3928   1.448       .  S
C3926      C3929   1.451       .  S
C3927      N3934   1.157       .  T
C3928      N3933   1.157       .  T
C3929      N3931   1.157       .  T
C3930      N3932   1.157       .  T
C3935      C3936   1.411       .  A
C3935      C3940   1.422       .  A
C3936      C3937   1.410       .  A
C3936      C3941   1.438       .  S
C3937      C3938   1.409       .  A
C3937      C3944   1.441       .  S
C3938      C3939   1.415       .  A
C3939      C3940   1.422       .  A
C3939      C3942   1.451       .  S
C3940      C3943   1.447       .  S
C3941      N3948   1.153       .  T
C3942      N3947   1.158       .  T
C3943      N3945   1.157       .  T
C3944      N3946   1.155       .  T
C3949      C3950   1.402       .  A
C3949      C3954   1.417       .  A
C3950      C3951   1.408       .  A
C3950      C3955   1.450       .  S
C3951      C3952   1.413       .  A
C3951      C3958   1.429       .  S
C3952      C3953   1.421       .  A
C3953      C3954   1.423       .  A
C3953      C3956   1.450       .  S
C3954      C3957   1.449       .  S
C3955      N3962   1.156       .  T
C3956      N3961   1.157       .  T
C3957      N3959   1.157       .  T
C3963      C3964   1.417       .  A
C3963      C3968   1.409       .  A
C3964      C3965   1.419       .  A
C3964      C3969   1.450       .  S
C3965      C3966   1.412       .  A
C3965      C3972   1.449       .  S
C3966      C3967   1.410       .  A
C3967      C3968   1.415       .  A
C3967      C3970   1.443       .  S
C3968      C3971   1.447       .  S
C3969      N3976   1.157       .  T
C3970      N3975   1.155       .  T
C3971      N3973   1.156       .  T
C3972      N3974   1.157       .  T
C3977      C3978   1.404       .  A
C3977      C3982   1.417       .  A
C3978      C3979   1.405       .  A
C3978      C3983   1.445       .  S
C3979      C3980   1.413       .  A
C3979      C3986   1.433       .  S
C3980      C3981   1.421       .  A
C3981      C3982   1.422       .  A
C3981      C3984   1.451       .  S
C3982      C3985   1.450       .  S
C3983      N3990   1.154       .  T
C3984      N3989   1.157       .  T
C3985      N3987   1.157       .  T
C3986      N3988   1.151       .  T
C3991      C3992   1.413       .  A
C3991      C3996   1.403       .  A
C3992      C3993   1.419       .  A
C3992      C3997   1.448       .  S
C3993      C3994   1.426       .  A
C3993      C4000   1.452       .  S
C3994      C3995   1.419       .  A
C3995      C3996   1.407       .  A
C3995      C3998   1.442       .  S
C3996      C3999   1.446       .  S
C3997      N4004   1.156       .  T
C3998      N4003   1.156       .  T
C3999      N4001   1.155       .  T
C4000      N4002   1.158       .  T
C4005      C4006   1.424       .  A
C4005      C4010   1.417       .  A
C4006      C4007   1.424       .  A
C4006      C4011   1.451       .  S
C4007      C4008   1.423       .  A
C4007      C4014   1.452       .  S
C4008      C4009   1.416       .  A
C4009      C4010   1.415       .  A
C4009      C4012   1.438       .  S
C4010      C4013   1.445       .  S
C4011      N4018   1.158       .  T
C4012      N4017   1.153       .  T
C4013      N4015   1.155       .  T
C4014      N4016   1.158       .  T
C4019      C4020   1.400       .  A
C4019      C4024   1.414       .  A
C4020      C4021   1.407       .  A
C4020      C4025   1.452       .  S
C4021      C4022   1.426       .  A
C4021      C4028   1.454       .  S
C4022      C4023   1.415       .  A
C4023      C4024   1.421       .  A
C4023      C4026   1.448       .  S
C4024      C4027   1.445       .  S
C4025      N4032   1.157       .  T
C4026      N4031   1.157       .  T
C4027      N4635   1.156   1_554  T
C4028      N4030   1.157       .  T
N4029      C4633   1.156       .  T
C4033      C4034   1.414       .  A
C4033      C4038   1.405       .  A
C4034      C4035   1.422       .  A
C4034      C4039   1.448       .  S
C4035      C4036   1.416       .  A
C4035      C4042   1.447       .  S
C4036      C4037   1.423       .  A
C4037      C4038   1.407       .  A
C4037      C4040   1.452       .  S
C4038      C4041   1.455       .  S
C4039      N4046   1.157       .  T
C4040      N4045   1.157       .  T
C4041      N4043   1.157       .  T
C4042      N4044   1.157       .  T
C4047      C4048   1.428       .  A
C4047      C4052   1.400       .  A
C4048      C4049   1.411       .  A
C4048      C4053   1.451       .  S
C4049      C4050   1.401       .  A
C4049      C4056   1.451       .  S
C4050      C4051   1.431       .  A
C4051      C4052   1.410       .  A
C4051      C4054   1.452       .  S
C4052      C4055   1.452       .  S
C4053      N4060   1.157       .  T
C4054      N4059   1.157       .  T
C4055      N4057   1.157       .  T
C4056      N4058   1.157       .  T
C4061      C4062   1.441       .  A
C4061      C4066   1.418       .  A
C4062      C4063   1.409       .  A
C4062      C4067   1.450       .  S
C4063      C4064   1.394       .  A
C4063      C4070   1.454       .  S
C4064      C4065   1.408       .  A
C4065      C4066   1.417       .  A
C4065      C4068   1.447       .  S
C4066      C4069   1.447       .  S
C4067      N4074   1.156       .  T
C4068      N4073   1.157       .  T
C4069      N4071   1.157       .  T
C4070      N4072   1.157       .  T
C4075      C4076   1.412       .  A
C4075      C4080   1.404       .  A
C4076      C4077   1.421       .  A
C4076      C4081   1.451       .  S
C4077      C4078   1.429       .  A
C4077      C4084   1.451       .  S
C4078      C4079   1.427       .  A
C4079      C4080   1.409       .  A
C4079      C4082   1.452       .  S
C4080      C4083   1.450       .  S
C4081      N4088   1.157       .  T
C4082      N4087   1.158       .  T
C4083      N4085   1.157       .  T
C4084      N4086   1.158       .  T
C4089      C4090   1.422       .  A
C4089      C4094   1.425       .  A
C4090      C4091   1.417       .  A
C4090      C4095   1.444       .  S
C4091      C4092   1.408       .  A
C4091      C4098   1.445       .  S
C4092      C4093   1.412       .  A
C4093      C4094   1.419       .  A
C4093      C4096   1.453       .  S
C4094      C4097   1.448       .  S
C4095      N4102   1.155       .  T
C4096      N4101   1.157       .  T
C4097      N4099   1.157       .  T
C4098      N4100   1.155       .  T
C4103      C4104   1.409       .  A
C4103      C4108   1.409       .  A
C4104      C4105   1.431       .  A
C4104      C4109   1.443       .  S
C4105      C4106   1.422       .  A
C4105      C4112   1.440       .  S
C4106      C4107   1.409       .  A
C4107      C4108   1.398       .  A
C4107      C4110   1.448       .  S
C4108      C4111   1.443       .  S
C4109      N4116   1.157       .  T
C4110      N4115   1.157       .  T
C4111      N4113   1.155       .  T
C4112      N4114   1.156       .  T
C4117      C4118   1.406       .  A
C4117      C4122   1.419       .  A
C4118      C4119   1.408       .  A
C4118      C4123   1.444       .  S
C4119      C4120   1.408       .  A
C4119      C4126   1.439       .  S
C4120      C4121   1.410       .  A
C4121      C4122   1.421       .  A
C4121      C4124   1.448       .  S
C4122      C4125   1.449       .  S
C4124      N4129   1.157       .  T
C4125      N4127   1.157       .  T
C4131      C4132   1.414       .  A
C4131      C4136   1.405       .  A
C4132      C4133   1.420       .  A
C4132      C4137   1.446       .  S
C4133      C4134   1.415       .  A
C4133      C4140   1.449       .  S
C4134      C4135   1.419       .  A
C4135      C4136   1.407       .  A
C4135      C4138   1.452       .  S
C4136      C4139   1.451       .  S
C4137      N4144   1.156       .  T
C4138      N4143   1.157       .  T
C4139      N4141   1.157       .  T
C4140      N4142   1.157       .  T
C4145      C4146   1.429       .  A
C4145      C4150   1.397       .  A
C4146      C4147   1.414       .  A
C4146      C4151   1.452       .  S
C4147      C4148   1.407       .  A
C4147      C4154   1.451       .  S
C4148      C4149   1.436       .  A
C4149      C4150   1.410       .  A
C4149      C4152   1.454       .  S
C4150      C4153   1.453       .  S
C4151      N4158   1.157       .  T
C4152      N4157   1.158       .  T
C4153      N4155   1.157       .  T
C4154      N4156   1.157       .  T
C4159      C4160   1.425       .  A
C4159      C4164   1.403       .  A
C4160      C4161   1.411       .  A
C4160      C4165   1.449       .  S
C4161      C4162   1.402       .  A
C4161      C4168   1.451       .  S
C4162      C4163   1.427       .  A
C4163      C4164   1.412       .  A
C4163      C4166   1.451       .  S
C4164      C4167   1.451       .  S
C4165      N4778   1.156   1_554  T
C4166      N4171   1.157       .  T
C4167      N4169   1.157       .  T
C4168      N4776   1.157       .  T
N4170      C4774   1.157       .  T
N4172      C4771   1.156       .  T
C4173      C4174   1.428       .  A
C4173      C4178   1.401       .  A
C4174      C4175   1.413       .  A
C4174      C4179   1.452       .  S
C4175      C4176   1.403       .  A
C4175      C4182   1.451       .  S
C4176      C4177   1.427       .  A
C4177      C4178   1.411       .  A
C4177      C4180   1.448       .  S
C4178      C4181   1.451       .  S
C4179      N4186   1.157       .  T
C4180      N4185   1.156       .  T
C4181      N4183   1.157       .  T
C4182      N4184   1.157       .  T
C4187      C4188   1.420       .  A
C4187      C4192   1.401       .  A
C4188      C4189   1.423       .  A
C4188      C4193   1.448       .  S
C4189      C4190   1.411       .  A
C4189      C4196   1.450       .  S
C4190      C4191   1.428       .  A
C4191      C4192   1.410       .  A
C4191      C4194   1.448       .  S
C4192      C4195   1.454       .  S
C4193      N4200   1.157       .  T
C4196      N4198   1.157       .  T
C4201      C4202   1.428       .  A
C4201      C4206   1.426       .  A
C4202      C4203   1.416       .  A
C4202      C4207   1.436       .  S
C4203      C4204   1.398       .  A
C4203      C4210   1.449       .  S
C4204      C4205   1.411       .  A
C4205      C4206   1.416       .  A
C4205      C4208   1.451       .  S
C4206      C4209   1.451       .  S
C4207      N4214   1.153       .  T
C4208      N4213   1.157       .  T
C4209      N4211   1.158       .  T
C4210      N4212   1.157       .  T
C4215      C4216   1.408       .  A
C4215      C4220   1.424       .  A
C4216      C4217   1.418       .  A
C4216      C4221   1.450       .  S
C4217      C4218   1.419       .  A
C4217      C4224   1.448       .  S
C4218      C4219   1.401       .  A
C4219      C4220   1.408       .  A
C4219      C4222   1.453       .  S
C4220      C4223   1.446       .  S
C4221      N4228   1.157       .  T
C4222      N4227   1.157       .  T
C4223      N4225   1.154       .  T
C4224      N4226   1.157       .  T
C4229      C4230   1.434       .  A
C4229      C4234   1.410       .  A
C4230      C4231   1.400       .  A
C4230      C4235   1.455       .  S
C4231      C4232   1.397       .  A
C4231      C4238   1.456       .  S
C4232      C4233   1.415       .  A
C4233      C4234   1.420       .  A
C4233      C4236   1.449       .  S
C4234      C4237   1.447       .  S
C4235      N4242   1.157       .  T
C4236      N4241   1.157       .  T
C4237      N4239   1.157       .  T
C4238      N4240   1.157       .  T
N4243      N4244   1.332       .  A
N4243      N4249   1.321       .  A
N4244      C4251   1.364       .  A
N4245      N4247   1.316       .  A
N4245      N4246   1.303       .  A
N4246      C4252   1.330       .  A
N4247      N4248   1.335       .  A
N4247     Mn4272   2.262       .  S
N4248      C4252   1.372       .  A
N4249      N4250   1.309       .  A
N4249     Mn4261   2.167       .  S
N4250      C4251   1.336       .  A
C4251      C4782   1.493       .  S
C4252      C4754   1.507       .  S
N4253      N4259   1.311       .  A
N4253      N4254   1.325       .  A
N4254      C4262   1.353       .  A
N4255      N4256   1.319       .  A
N4255      N4257   1.310       .  A
N4255     Mn4261   2.155       .  S
N4256      C4263   1.345       .  A
N4257      N4258   1.320       .  A
N4257     Mn4283   2.199       .  S
N4258      C4263   1.352       .  A
N4259      N4260   1.319       .  A
N4260      C4262   1.345       .  A
Mn4261    Cl4285   2.434       .  S
C4262      C4824   1.486       .  S
C4263      C4838   1.475       .  S
N4264      N4265   1.334       .  A
N4264      N4270   1.319       .  A
N4264     Mn4272   2.253       .  S
N4265      C4273   1.368       .  A
N4266      N4268   1.324       .  A
N4266      N4267   1.310       .  A
N4267      C4274   1.336       .  A
N4268      N4269   1.332       .  A
N4269      C4274   1.362       .  A
N4270      N4271   1.305       .  A
N4270     Mn4284   2.162   1_556  S
N4271      C4273   1.334       .  A
C4273      C4740   1.491       .  S
C4274      C4765   1.488       .  S
N4275      N4276   1.328       .  A
N4275      N4281   1.309       .  A
N4275     Mn4283   2.213       .  S
N4276      C4286   1.359       .  A
N4277      N4278   1.322       .  A
N4277      N4279   1.312       .  A
N4277     Mn4284   2.180   1_556  S
N4278      C4287   1.345       .  A
N4279      N4280   1.326       .  A
N4280      C4287   1.354       .  A
N4281      N4282   1.322       .  A
N4282      C4286   1.355       .  A
Mn4283    Cl4285   2.605       .  S
C4286      C4807   1.522       .  S
C4287      C4793   1.493       .  S
N4288      N4289   1.325       .  A
N4288      N4294   1.311       .  A
N4288     Mn4317   2.218       .  S
N4289      C4296   1.356       .  A
N4290      N4292   1.311       .  A
N4290      N4291   1.317       .  A
N4291      C4297   1.344       .  A
N4292      N4293   1.333       .  A
N4293      C4297   1.361       .  A
N4294      N4295   1.323       .  A
N4294     Mn4306   2.167       .  S
N4295      C4296   1.347       .  A
C4296      C4723   1.499       .  S
C4297      C4712   1.503       .  S
N4298      N4304   1.318       .  A
N4298      N4299   1.336       .  A
N4299      C4307   1.370       .  A
N4300      N4301   1.307       .  A
N4300      N4302   1.319       .  A
N4300     Mn4306   2.153       .  S
N4301      C4308   1.335       .  A
N4302      N4303   1.336       .  A
N4302     Mn4328   2.266       .  S
N4303      C4308   1.370       .  A
N4304      N4305   1.304       .  A
N4305      C4307   1.332       .  A
Mn4306    Cl4330   2.436       .  S
C4307      C4667   1.517       .  S
C4308      C4642   1.500       .  S
N4309      N4310   1.325       .  A
N4309      N4315   1.306       .  A
N4310      C4318   1.357       .  A
N4311      N4313   1.311       .  A
N4311      N4312   1.322       .  A
N4311     Mn4329   2.189       .  S
N4312      C4319   1.353       .  A
N4313      N4314   1.323       .  A
N4313     Mn4317   2.222       .  S
N4314      C4319   1.358       .  A
N4315      N4316   1.318       .  A
N4316      C4318   1.353       .  A
Mn4317    Cl4330   2.588       .  S
C4318      C4684   1.517       .  S
C4319      C4695   1.524       .  S
N4320      N4321   1.333       .  A
N4320      N4326   1.321       .  A
N4320     Mn4328   2.240       .  S
N4321      C4331   1.362       .  A
N4322      N4323   1.306       .  A
N4322      N4324   1.323       .  A
N4323      C4332   1.331       .  A
N4324      N4325   1.333       .  A
N4325      C4332   1.365       .  A
N4326      N4327   1.309       .  A
N4326     Mn4329   2.178       .  S
N4327      C4331   1.336       .  A
Mn4328    Cl4330   2.636       .  S
Mn4329    Cl4330   2.437       .  S
C4331      C4625   1.480       .  S
C4332      C4656   1.491       .  S
N4333      N4334   1.332       .  A
N4333      N4339   1.324       .  A
N4333     Mn4362   2.270       .  S
N4334      C4341   1.364       .  A
N4335      N4337   1.320       .  A
N4335      N4336   1.308       .  A
N4335     Mn4351   2.164       .  S
N4336      C4342   1.334       .  A
N4337      N4338   1.333       .  A
N4337     Mn4362   2.244       .  S
N4338      C4342   1.363       .  A
N4339      N4340   1.309       .  A
N4339     Mn4351   2.158       .  S
N4340      C4341   1.333       .  A
C4341      C4779   1.491       .  S
C4342      C4639   1.481       .  S
N4343      N4349   1.310       .  A
N4343      N4344   1.325       .  A
N4344      C4352   1.359       .  A
N4345      N4346   1.323       .  A
N4345      N4347   1.307       .  A
N4345     Mn4351   2.176       .  S
N4346      C4353   1.353       .  A
N4347      N4348   1.322       .  A
N4348      C4353   1.360       .  A
N4349      N4350   1.319       .  A
N4349     Mn4351   2.173       .  S
N4350      C4352   1.348       .  A
C4352      C4600   1.510       .  S
C4353      C4611   1.524       .  S
N4354      N4355   1.337       .  A
N4354      N4360   1.318       .  A
N4355      C4363   1.372       .  A
N4356      N4358   1.323       .  A
N4356      N4357   1.311       .  A
N4356     Mn4374   2.168       .  S
N4357      C4364   1.336       .  A
N4358      N4359   1.331       .  A
N4359      C4364   1.360       .  A
N4360      N4361   1.301       .  A
N4360     Mn4374   2.140       .  S
N4361      C4363   1.330       .  A
C4363      C4628   1.500       .  S
C4364      C4768   1.492       .  S
N4365      N4366   1.319       .  A
N4365      N4371   1.310       .  A
N4365     Mn4373   2.213   1_565  S
N4366      C4376   1.357       .  A
N4367      N4368   1.321       .  A
N4367      N4369   1.309       .  A
N4367     Mn4374   2.174       .  S
N4368      C4377   1.346       .  A
N4369      N4370   1.326       .  A
N4369     Mn4373   2.219   1_565  S
N4370      C4377   1.359       .  A
N4371      N4372   1.323       .  A
N4371     Mn4374   2.166       .  S
N4372      C4376   1.349       .  A
Mn4373    Cl4375   2.586       .  S
Mn4374    Cl4375   2.449   1_565  S
C4376      C4583   1.500       .  S
C4377      C4569   1.497       .  S
N4378      N4379   1.328       .  A
N4378      N4384   1.310       .  A
N4378     Mn4407   2.228       .  S
N4379      C4386   1.363       .  A
N4380      N4382   1.312       .  A
N4380      N4381   1.324       .  A
N4380     Mn4396   2.176       .  S
N4381      C4387   1.352       .  A
N4382      N4383   1.322       .  A
N4382     Mn4407   2.241       .  S
N4383      C4387   1.361       .  A
N4384      N4385   1.321       .  A
N4384     Mn4396   2.188       .  S
N4385      C4386   1.349       .  A
C4386      C4558   1.513       .  S
C4387      C4541   1.519       .  S
N4388      N4394   1.322       .  A
N4388      N4389   1.328       .  A
N4388     Mn4418   2.224       .  S
N4389      C4397   1.356       .  A
N4390      N4391   1.303       .  A
N4390      N4392   1.320       .  A
N4390     Mn4396   2.127       .  S
N4391      C4398   1.326       .  A
N4392      N4393   1.335       .  A
N4392     Mn4418   2.281       .  S
N4393      C4398   1.370       .  A
N4394      N4395   1.314       .  A
N4394     Mn4396   2.196       .  S
N4395      C4397   1.342       .  A
Mn4396    Cl4420   2.466       .  S
C4397      C4670   1.478       .  S
C4398      C4751   1.484       .  S
N4399      N4400   1.326       .  A
N4399      N4405   1.311       .  A
N4400      C4408   1.358       .  A
N4401      N4403   1.312       .  A
N4401      N4402   1.322       .  A
N4401     Mn4419   2.156       .  S
N4402      C4409   1.344       .  A
N4403      N4404   1.325       .  A
N4404      C4409   1.363       .  A
N4405      N4406   1.319       .  A
N4405     Mn4419   2.165       .  S
N4406      C4408   1.346       .  A
Mn4407    Cl4420   2.566       .  S
C4408      C4513   1.488       .  S
C4409      C4527   1.502       .  S
N4410      N4411   1.334       .  A
N4410      N4416   1.319       .  A
N4411      C4421   1.365       .  A
N4412      N4413   1.308       .  A
N4412      N4414   1.321       .  A
N4412     Mn4419   2.152       .  S
N4413      C4422   1.333       .  A
N4414      N4415   1.332       .  A
N4415      C4422   1.364       .  A
N4416      N4417   1.307       .  A
N4416     Mn4419   2.161       .  S
N4417      C4421   1.333       .  A
Mn4418    Cl4420   2.620       .  S
C4421      C4737   1.480       .  S
C4422      C4653   1.488       .  S
N4423      N4424   1.335       .  A
N4423      N4429   1.315       .  A
N4424      C4431   1.373       .  A
N4425      N4427   1.318       .  A
N4425      N4426   1.316       .  A
N4426      C4432   1.345       .  A
N4427      N4428   1.332       .  A
N4427     Mn4452   2.238       .  S
N4428      C4432   1.363       .  A
N4429      N4430   1.304       .  A
N4429     Mn4441   2.163       .  S
N4430      C4431   1.331       .  A
C4431      C4835   1.498       .  S
C4432      C4726   1.494       .  S
N4433      N4439   1.313       .  A
N4433      N4434   1.318       .  A
N4434      C4442   1.358       .  A
N4435      N4436   1.321       .  A
N4435      N4437   1.306       .  A
N4435     Mn4441   2.177       .  S
N4436      C4443   1.351       .  A
N4437      N4438   1.324       .  A
N4437     Mn4463   2.218       .  S
N4438      C4443   1.363       .  A
N4439      N4440   1.322       .  A
N4440      C4442   1.352       .  A
Mn4441    Cl4465   2.446       .  S
C4442      C4597   1.501       .  S
C4443      C4614   1.525       .  S
N4444      N4445   1.339       .  A
N4444      N4450   1.319       .  A
N4444     Mn4452   2.270       .  S
N4445      C4453   1.371       .  A
N4446      N4448   1.319       .  A
N4446      N4447   1.311       .  A
N4446     Mn4464   2.175       .  S
N4447      C4454   1.338       .  A
N4448      N4449   1.333       .  A
N4449      C4454   1.364       .  A
N4450      N4451   1.304       .  A
N4451      C4453   1.340       .  A
C4453      C4709   1.509       .  S
C4454      C4821   1.494       .  S
N4455      N4456   1.321       .  A
N4455      N4461   1.313       .  A
N4455     Mn4463   2.217       .  S
N4456      C4466   1.357       .  A
N4457      N4458   1.322       .  A
N4457      N4459   1.310       .  A
N4458      C4467   1.354       .  A
N4459      N4460   1.325       .  A
N4460      C4467   1.361       .  A
N4461      N4462   1.324       .  A
N4461     Mn4464   2.185       .  S
N4462      C4466   1.350       .  A
Mn4463    Cl4465   2.588       .  S
Mn4464    Cl4465   2.445       .  S
C4466      C4555   1.498       .  S
C4467      C4544   1.512       .  S
N4468      N4469   1.326       .  A
N4468      N4474   1.310       .  A
N4469      C4476   1.362       .  A
N4470      N4472   1.314       .  A
N4470      N4471   1.323       .  A
N4470     Mn4486   2.187   1_655  S
N4471      C4477   1.349       .  A
N4472      N4473   1.326       .  A
N4472     Mn4497   2.245   1_655  S
N4473      C4477   1.361       .  A
N4474      N4475   1.320       .  A
N4475      C4476   1.351       .  A
C4476      C4586   1.508       .  S
C4477      C4572   1.500       .  S
N4478      N4484   1.319       .  A
N4478      N4479   1.334       .  A
N4478     Mn4508   2.277   1_655  S
N4479      C4487   1.369       .  A
N4480      N4481   1.310       .  A
N4480      N4482   1.320       .  A
N4481      C4488   1.339       .  A
N4482      N4483   1.331       .  A
N4483      C4488   1.368       .  A
N4484      N4485   1.311       .  A
N4484     Mn4486   2.164   1_655  S
N4485      C4487   1.339       .  A
Mn4486    Cl4510   2.484       .  S
C4487      C4698   1.495       .  S
C4488      C4810   1.494       .  S
N4489      N4490   1.326       .  A
N4489      N4495   1.311       .  A
N4489     Mn4497   2.221   1_655  S
N4490      C4498   1.358       .  A
N4491      N4493   1.313       .  A
N4491      N4492   1.323       .  A
N4492      C4499   1.345       .  A
N4493      N4494   1.325       .  A
N4494      C4499   1.362       .  A
N4495      N4496   1.318       .  A
N4495     Mn4509   2.172       .  S
N4496      C4498   1.348       .  A
Mn4497    Cl4510   2.574       .  S
C4498      C4516   1.492       .  S
C4499      C4530   1.504       .  S
N4500      N4501   1.337       .  A
N4500      N4506   1.318       .  A
N4501      C4511   1.370       .  A
N4502      N4503   1.311       .  A
N4502      N4504   1.320       .  A
N4502     Mn4509   2.190       .  S
N4503      C4512   1.340       .  A
N4504      N4505   1.332       .  A
N4504     Mn4508   2.240   1_655  S
N4505      C4512   1.363       .  A
N4506      N4507   1.309       .  A
N4507      C4511   1.334       .  A
Mn4508    Cl4510   2.626       .  S
Mn4509    Cl4510   2.464   1_655  S
C4511      C4796   1.502       .  S
C4512      C4681   1.488       .  S
C4513      C4514   1.409       .  A
C4513      C4518   1.413       .  A
C4514      C4515   1.411       .  A
C4514      C4519   1.451       .  S
C4515      C4516   1.416       .  A
C4515      C4522   1.446       .  S
C4516      C4517   1.409       .  A
C4517      C4518   1.415       .  A
C4517      C4520   1.449       .  S
C4518      C4521   1.446       .  S
C4519      N4526   1.157       .  T
C4522      N4524   1.156       .  T
C4527      C4528   1.412       .  A
C4527      C4532   1.417       .  A
C4528      C4529   1.420       .  A
C4528      C4533   1.449       .  S
C4529      C4530   1.417       .  A
C4529      C4536   1.451       .  S
C4530      C4531   1.413       .  A
C4531      C4532   1.419       .  A
C4531      C4534   1.448       .  S
C4532      C4535   1.451       .  S
C4533      N4540   1.157       .  T
C4534      N4539   1.157       .  T
C4535      N4537   1.157       .  T
C4536      N4538   1.157       .  T
C4541      C4542   1.411       .  A
C4541      C4546   1.422       .  A
C4542      C4543   1.410       .  A
C4542      C4547   1.438       .  S
C4543      C4544   1.409       .  A
C4543      C4550   1.441       .  S
C4544      C4545   1.415       .  A
C4545      C4546   1.422       .  A
C4545      C4548   1.451       .  S
C4546      C4549   1.447       .  S
C4547      N4554   1.153       .  T
C4548      N4553   1.158       .  T
C4549      N4551   1.157       .  T
C4550      N4552   1.155       .  T
C4555      C4556   1.402       .  A
C4555      C4560   1.417       .  A
C4556      C4557   1.408       .  A
C4556      C4561   1.450       .  S
C4557      C4558   1.413       .  A
C4557      C4564   1.429       .  S
C4558      C4559   1.421       .  A
C4559      C4560   1.423       .  A
C4559      C4562   1.450       .  S
C4560      C4563   1.449       .  S
C4561      N4568   1.156       .  T
C4562      N4567   1.157       .  T
C4563      N4565   1.157       .  T
C4569      C4570   1.417       .  A
C4569      C4574   1.409       .  A
C4570      C4571   1.419       .  A
C4570      C4575   1.450       .  S
C4571      C4572   1.412       .  A
C4571      C4578   1.449       .  S
C4572      C4573   1.410       .  A
C4573      C4574   1.415       .  A
C4573      C4576   1.443       .  S
C4574      C4577   1.447       .  S
C4575      N4582   1.157       .  T
C4576      N4581   1.155       .  T
C4577      N4579   1.156       .  T
C4578      N4580   1.157       .  T
C4583      C4584   1.404       .  A
C4583      C4588   1.417       .  A
C4584      C4585   1.405       .  A
C4584      C4589   1.445       .  S
C4585      C4586   1.413       .  A
C4585      C4592   1.433       .  S
C4586      C4587   1.421       .  A
C4587      C4588   1.422       .  A
C4587      C4590   1.451       .  S
C4588      C4591   1.450       .  S
C4589      N4596   1.154       .  T
C4590      N4595   1.157       .  T
C4591      N4593   1.157       .  T
C4592      N4594   1.151       .  T
C4597      C4598   1.413       .  A
C4597      C4602   1.403       .  A
C4598      C4599   1.419       .  A
C4598      C4603   1.448       .  S
C4599      C4600   1.426       .  A
C4599      C4606   1.452       .  S
C4600      C4601   1.419       .  A
C4601      C4602   1.407       .  A
C4601      C4604   1.442       .  S
C4602      C4605   1.446       .  S
C4603      N4610   1.156       .  T
C4604      N4609   1.156       .  T
C4605      N4607   1.155       .  T
C4606      N4608   1.158       .  T
C4611      C4612   1.424       .  A
C4611      C4616   1.417       .  A
C4612      C4613   1.424       .  A
C4612      C4617   1.451       .  S
C4613      C4614   1.423       .  A
C4613      C4620   1.452       .  S
C4614      C4615   1.416       .  A
C4615      C4616   1.415       .  A
C4615      C4618   1.438       .  S
C4616      C4619   1.445       .  S
C4617      N4624   1.158       .  T
C4618      N4623   1.153       .  T
C4619      N4621   1.155       .  T
C4620      N4622   1.158       .  T
C4625      C4626   1.400       .  A
C4625      C4630   1.414       .  A
C4626      C4627   1.407       .  A
C4626      C4631   1.452       .  S
C4627      C4628   1.426       .  A
C4627      C4634   1.454       .  S
C4628      C4629   1.415       .  A
C4629      C4630   1.421       .  A
C4629      C4632   1.448       .  S
C4630      C4633   1.445       .  S
C4631      N4638   1.157       .  T
C4632      N4637   1.157       .  T
C4634      N4636   1.157       .  T
C4639      C4640   1.414       .  A
C4639      C4644   1.405       .  A
C4640      C4641   1.422       .  A
C4640      C4645   1.448       .  S
C4641      C4642   1.416       .  A
C4641      C4648   1.447       .  S
C4642      C4643   1.423       .  A
C4643      C4644   1.407       .  A
C4643      C4646   1.452       .  S
C4644      C4647   1.455       .  S
C4645      N4652   1.157       .  T
C4646      N4651   1.157       .  T
C4647      N4649   1.157       .  T
C4648      N4650   1.157       .  T
C4653      C4654   1.428       .  A
C4653      C4658   1.400       .  A
C4654      C4655   1.411       .  A
C4654      C4659   1.451       .  S
C4655      C4656   1.401       .  A
C4655      C4662   1.451       .  S
C4656      C4657   1.431       .  A
C4657      C4658   1.410       .  A
C4657      C4660   1.452       .  S
C4658      C4661   1.452       .  S
C4659      N4666   1.157       .  T
C4660      N4665   1.157   1_556  T
C4661      N4663   1.157       .  T
C4662      N4664   1.157       .  T
C4667      C4668   1.441       .  A
C4667      C4672   1.418       .  A
C4668      C4669   1.409       .  A
C4668      C4673   1.450       .  S
C4669      C4670   1.394       .  A
C4669      C4676   1.454       .  S
C4670      C4671   1.408       .  A
C4671      C4672   1.417       .  A
C4671      C4674   1.447       .  S
C4672      C4675   1.447       .  S
C4673      N4680   1.156       .  T
C4674      N4679   1.157       .  T
C4675      N4677   1.157       .  T
C4676      N4678   1.157       .  T
C4681      C4682   1.412       .  A
C4681      C4686   1.404       .  A
C4682      C4683   1.421       .  A
C4682      C4687   1.451       .  S
C4683      C4684   1.429       .  A
C4683      C4690   1.451       .  S
C4684      C4685   1.427       .  A
C4685      C4686   1.409       .  A
C4685      C4688   1.452       .  S
C4686      C4689   1.450       .  S
C4687      N4694   1.157       .  T
C4688      N4693   1.158       .  T
C4689      N4691   1.157       .  T
C4690      N4692   1.158       .  T
C4695      C4696   1.422       .  A
C4695      C4700   1.425       .  A
C4696      C4697   1.417       .  A
C4696      C4701   1.444       .  S
C4697      C4698   1.408       .  A
C4697      C4704   1.445       .  S
C4698      C4699   1.412       .  A
C4699      C4700   1.419       .  A
C4699      C4702   1.453       .  S
C4700      C4703   1.448       .  S
C4701      N4708   1.155       .  T
C4702      N4707   1.157       .  T
C4703      N4705   1.157       .  T
C4704      N4706   1.155       .  T
C4709      C4710   1.409       .  A
C4709      C4714   1.409       .  A
C4710      C4711   1.431       .  A
C4710      C4715   1.443       .  S
C4711      C4712   1.422       .  A
C4711      C4718   1.440       .  S
C4712      C4713   1.409       .  A
C4713      C4714   1.398       .  A
C4713      C4716   1.448       .  S
C4714      C4717   1.443       .  S
C4715      N4722   1.157       .  T
C4716      N4721   1.157       .  T
C4717      N4719   1.155       .  T
C4718      N4720   1.156       .  T
C4723      C4724   1.406       .  A
C4723      C4728   1.419       .  A
C4724      C4725   1.408       .  A
C4724      C4729   1.444       .  S
C4725      C4726   1.408       .  A
C4725      C4732   1.439       .  S
C4726      C4727   1.410       .  A
C4727      C4728   1.421       .  A
C4727      C4730   1.448       .  S
C4728      C4731   1.449       .  S
C4730      N4735   1.157       .  T
C4731      N4733   1.157       .  T
C4737      C4738   1.414       .  A
C4737      C4742   1.405       .  A
C4738      C4739   1.420       .  A
C4738      C4743   1.446       .  S
C4739      C4740   1.415       .  A
C4739      C4746   1.449       .  S
C4740      C4741   1.419       .  A
C4741      C4742   1.407       .  A
C4741      C4744   1.452       .  S
C4742      C4745   1.451       .  S
C4743      N4750   1.156       .  T
C4744      N4749   1.157       .  T
C4745      N4747   1.157       .  T
C4746      N4748   1.157       .  T
C4751      C4752   1.429       .  A
C4751      C4756   1.397       .  A
C4752      C4753   1.414       .  A
C4752      C4757   1.452       .  S
C4753      C4754   1.407       .  A
C4753      C4760   1.451       .  S
C4754      C4755   1.436       .  A
C4755      C4756   1.410       .  A
C4755      C4758   1.454       .  S
C4756      C4759   1.453       .  S
C4757      N4764   1.157       .  T
C4758      N4763   1.158       .  T
C4759      N4761   1.157       .  T
C4760      N4762   1.157       .  T
C4765      C4766   1.425       .  A
C4765      C4770   1.403       .  A
C4766      C4767   1.411       .  A
C4766      C4771   1.449       .  S
C4767      C4768   1.402       .  A
C4767      C4774   1.451       .  S
C4768      C4769   1.427       .  A
C4769      C4770   1.412       .  A
C4769      C4772   1.451       .  S
C4770      C4773   1.451       .  S
C4772      N4777   1.157       .  T
C4773      N4775   1.157       .  T
C4779      C4780   1.428       .  A
C4779      C4784   1.401       .  A
C4780      C4781   1.413       .  A
C4780      C4785   1.452       .  S
C4781      C4782   1.403       .  A
C4781      C4788   1.451       .  S
C4782      C4783   1.427       .  A
C4783      C4784   1.411       .  A
C4783      C4786   1.448       .  S
C4784      C4787   1.451       .  S
C4785      N4792   1.157       .  T
C4786      N4791   1.156       .  T
C4787      N4789   1.157       .  T
C4788      N4790   1.157       .  T
C4793      C4794   1.420       .  A
C4793      C4798   1.401       .  A
C4794      C4795   1.423       .  A
C4794      C4799   1.448       .  S
C4795      C4796   1.411       .  A
C4795      C4802   1.450       .  S
C4796      C4797   1.428       .  A
C4797      C4798   1.410       .  A
C4797      C4800   1.448       .  S
C4798      C4801   1.454       .  S
C4799      N4806   1.157       .  T
C4802      N4804   1.157       .  T
C4807      C4808   1.428       .  A
C4807      C4812   1.426       .  A
C4808      C4809   1.416       .  A
C4808      C4813   1.436       .  S
C4809      C4810   1.398       .  A
C4809      C4816   1.449       .  S
C4810      C4811   1.411       .  A
C4811      C4812   1.416       .  A
C4811      C4814   1.451       .  S
C4812      C4815   1.451       .  S
C4813      N4820   1.153       .  T
C4814      N4819   1.157       .  T
C4815      N4817   1.158       .  T
C4816      N4818   1.157       .  T
C4821      C4822   1.408       .  A
C4821      C4826   1.424       .  A
C4822      C4823   1.418       .  A
C4822      C4827   1.450       .  S
C4823      C4824   1.419       .  A
C4823      C4830   1.448       .  S
C4824      C4825   1.401       .  A
C4825      C4826   1.408       .  A
C4825      C4828   1.453       .  S
C4826      C4829   1.446       .  S
C4827      N4834   1.157       .  T
C4828      N4833   1.157       .  T
C4829      N4831   1.154       .  T
C4830      N4832   1.157       .  T
C4835      C4836   1.434       .  A
C4835      C4840   1.410       .  A
C4836      C4837   1.400       .  A
C4836      C4841   1.455       .  S
C4837      C4838   1.397       .  A
C4837      C4844   1.456       .  S
C4838      C4839   1.415       .  A
C4839      C4840   1.420       .  A
C4839      C4842   1.449       .  S
C4840      C4843   1.447       .  S
C4841      N4848   1.157       .  T
C4842      N4847   1.157       .  T
C4843      N4845   1.157       .  T
C4844      N4846   1.157       .  T
