geometry optimzed in LAMMPS
_audit_creation_date              2020-11-30 
_audit_creation_method            'lammps2cif' 
_symmetry_space_group_name_H-M    'P1' 
_symmetry_Int_Tables_number       1 
_symmetry_cell_setting            triclinic 
loop_ 
_symmetry_equiv_pos_as_xyz 
  x,y,z 
_cell_length_a                    26.07906068 
_cell_length_b                    26.121984378389804 
_cell_length_c                    26.438328833591836 
_cell_angle_alpha                 89.65715372183595 
_cell_angle_beta                  90.02093129400993 
_cell_angle_gamma                 90.33561865190345 
loop_ 
_atom_site_label 
_atom_site_type_symbol 
_atom_site_fract_x 
_atom_site_fract_y 
_atom_site_fract_z 
_atom_site_charge 
O1          O  0.16168718  0.44935060  0.05982174    -0.80100
O2          O  0.17285014  0.54766554  0.93814700    -0.80100
O3          O  0.22682306  0.55476580  0.10290884    -0.80200
O4          O  0.23010177  0.43843864  0.89888054    -0.80100
O5          O  0.16572483  0.55681365  0.04517637    -0.80200
O6          O  0.16369668  0.44020387  0.95079304    -0.80100
O7          O  0.23996085  0.53567666  0.88970306    -0.80100
O8          O  0.22534696  0.45679273  0.11400645    -0.80200
C9          C  0.17804500  0.44913246  0.10515329     1.09600
C10         C  0.19314511  0.54769319  0.89466816     1.09500
C11         C  0.18072903  0.56404967  0.09029062     1.09600
C12         C  0.18212097  0.43400347  0.90661883     1.09500
O13         O  0.25601602  0.38171492  0.96322194    -0.80100
O14         O  0.26431173  0.60854780  0.04117457    -0.80200
O15         O  0.32308850  0.44478474  0.06305031    -0.80100
O16         O  0.33364478  0.53796414  0.94932634    -0.80100
O17         O  0.27405224  0.59749769  0.94484554    -0.80200
O18         O  0.25675295  0.39190100  0.06043133    -0.80100
O19         O  0.32535295  0.42927745  0.95730612    -0.80100
O20         O  0.32703987  0.55440964  0.05429913    -0.80200
Co21       Co  0.21024778  0.42313437  0.00808798     1.51500
Co22       Co  0.21908625  0.57039283  0.99292413     1.51700
Co23       Co  0.27560039  0.50192018  0.07646044     1.51600
Co24       Co  0.28168571  0.48598463  0.93112615     1.51500
O25         O  0.24656099  0.49530707  0.00222887    -1.42100
C26         C  0.30390812  0.38561150  0.95560437     1.09500
C27         C  0.31082222  0.60018241  0.05202185     1.09600
C28         C  0.30448736  0.39982575  0.06650105     1.09500
C29         C  0.32049232  0.58348465  0.93905834     1.09500
O30         O  0.77997768  0.44673294  0.09932595    -0.80100
O31         O  0.76978946  0.57773543  0.89807352    -0.80100
O32         O  0.84164243  0.46709199  0.93829274    -0.80200
O33         O  0.84857020  0.55618166  0.05099381    -0.80100
O34         O  0.77649125  0.48029155  0.88595062    -0.80200
O35         O  0.78844647  0.54396671  0.10889110    -0.80100
O36         O  0.83934649  0.57309471  0.94428808    -0.80100
O37         O  0.84412638  0.44986519  0.04587490    -0.80200
C38         C  0.82668768  0.43816462  0.08926711     1.09600
C39         C  0.81775583  0.58401724  0.90259074     1.09500
C40         C  0.82378481  0.47053282  0.89359039     1.09600
C41         C  0.83521598  0.55150913  0.09697942     1.09500
O42         O  0.68718362  0.56229940  0.06282612    -0.80100
O43         O  0.68004890  0.46122070  0.94121444    -0.80200
O44         O  0.74448980  0.39782541  0.03303155    -0.80100
O45         O  0.74288195  0.62596736  0.96783273    -0.80100
O46         O  0.67806467  0.57183243  0.95709304    -0.80200
O47         O  0.68219565  0.45235004  0.04974197    -0.80100
O48         O  0.75450182  0.61307898  0.06349324    -0.80100
O49         O  0.74726939  0.41150043  0.93625326    -0.80200
Co50       Co  0.73418852  0.50272065  0.07300470     1.51500
Co51       Co  0.72656378  0.52136937  0.92774882     1.51700
Co52       Co  0.79409721  0.43878544  0.98948245     1.51600
Co53       Co  0.79595607  0.58495899  0.00559391     1.51500
O54         O  0.76231321  0.51187644  0.99888786    -1.42100
C55         C  0.70718187  0.60569486  0.07227840     1.09500
C56         C  0.69929986  0.41740751  0.93283083     1.09600
C57         C  0.69845359  0.40654798  0.04678044     1.09500
C58         C  0.69527166  0.61758598  0.96063287     1.09500
O59         O  0.42494238  0.04314975  0.32323024    -0.80100
O60         O  0.55638317  0.94790468  0.33110462    -0.80100
O61         O  0.39658514  0.94018606  0.25690830    -0.80200
O62         O  0.59599504  0.05948708  0.28605434    -0.80100
O63         O  0.44724082  0.93807569  0.32397428    -0.80200
O64         O  0.53165142  0.05217240  0.34005375    -0.80100
O65         O  0.61301848  0.96371558  0.27176565    -0.80100
O66         O  0.38192555  0.03862518  0.25233967    -0.80200
C67         C  0.38275164  0.04643913  0.29964981     1.09600
C68         C  0.60276626  0.95054755  0.31667183     1.09500
C69         C  0.40279750  0.93483688  0.30445959     1.09600
C70         C  0.57809777  0.06264963  0.33091423     1.09500
O71         O  0.53724303  0.11731400  0.24954042    -0.80100
O72         O  0.46354441  0.88722148  0.22835409    -0.80200
O73         O  0.44843437  0.05101977  0.16566372    -0.80100
O74         O  0.56708706  0.96176091  0.17282694    -0.80100
O75         O  0.56155376  0.90107522  0.23136647    -0.80200
O76         O  0.44137854  0.10316478  0.23084306    -0.80100
O77         O  0.55446864  0.07045791  0.18327898    -0.80100
O78         O  0.45944007  0.94205018  0.16531084    -0.80200
Co79       Co  0.48477090  0.07173407  0.28524308     1.51500
Co80       Co  0.50623660  0.92568516  0.27869259     1.51700
Co81       Co  0.42863626  0.99351482  0.21111682     1.51600
Co82       Co  0.57525282  0.01319081  0.22788857     1.51500
O83         O  0.49873092  0.00093202  0.25042124    -1.42100
C84         C  0.55362700  0.11388507  0.20437519     1.09500
C85         C  0.45899987  0.89620791  0.18141363     1.09600
C86         C  0.44187539  0.09565606  0.18339872     1.09500
C87         C  0.57377609  0.91549431  0.18680992     1.09500
O88         O  0.37980713  0.04546941  0.75727983    -0.80100
O89         O  0.60717627  0.95723845  0.72761181    -0.80100
O90         O  0.52617756  0.06328307  0.66402084    -0.80200
O91         O  0.45134208  0.94797392  0.66707694    -0.80100
O92         O  0.59485130  0.05658918  0.71360013    -0.80200
O93         O  0.39393070  0.94969329  0.72839617    -0.80100
O94         O  0.55431360  0.92490405  0.67121391    -0.80100
O95         O  0.42107464  0.05630869  0.68685849    -0.80200
C96         C  0.37922071  0.05627187  0.71082245     1.09600
C97         C  0.59899576  0.93098304  0.68784062     1.09500
C98         C  0.57458061  0.06306171  0.67001179     1.09600
C99         C  0.40563095  0.94425413  0.68171080     1.09500
O100        O  0.45106970  0.92747057  0.82072374    -0.80100
O101        O  0.56046085  0.06977723  0.81862288    -0.80200
O102        O  0.44544542  0.10346789  0.78672073    -0.80100
O103        O  0.54381464  0.90091873  0.77176959    -0.80100
O104        O  0.56460653  0.96005880  0.82813682    -0.80200
O105        O  0.44631972  0.03732672  0.84119851    -0.80100
O106        O  0.45908105  0.88451006  0.74988595    -0.80100
O107        O  0.54059649  0.11938699  0.75471592    -0.84400
Co108      Co  0.42530205  0.99105173  0.78612783     1.51500
Co109      Co  0.57438839  0.01117723  0.77238084     1.51700
Co110      Co  0.48340676  0.07996689  0.72339029     1.51600
Co111      Co  0.50191050  0.94078943  0.72051525     1.51500
O112        O  0.49676178  0.00827198  0.75212486    -1.42100
C113        C  0.44719597  0.88539517  0.79648202     1.09500
C114        C  0.55750174  0.11418456  0.79911808     1.09600
C115        C  0.44203069  0.08518214  0.83194774     1.09500
C116        C  0.56029298  0.91312946  0.81562962     1.09500
O117        O  0.05257046  0.32069375  0.44862949    -0.80100
O118        O  0.94753665  0.33416380  0.55634557    -0.80100
O119        O  0.94097019  0.26767633  0.39519114    -0.80200
O120        O  0.04100733  0.25182159  0.60971292    -0.80100
O121        O  0.94572053  0.33380028  0.44631430    -0.80200
O122        O  0.05526956  0.31722459  0.55852853    -0.80100
O123        O  0.94384648  0.26861900  0.60945733    -0.80100
O124        O  0.03821352  0.25801152  0.39487365    -0.80200
C125        C  0.05002850  0.30447567  0.40334467     1.09600
C126        C  0.94327870  0.31671649  0.60121798     1.09500
C127        C  0.93725368  0.31550514  0.40252022     1.09600
C128        C  0.05523754  0.29784702  0.60293058     1.09500
O129        O  0.09445542  0.21448330  0.54854310    -0.80100
O130        O  0.87962207  0.24436058  0.45526150    -0.80200
O131        O  0.03314650  0.15992372  0.44924802    -0.80100
O132        O  0.92196106  0.17399284  0.55489527    -0.80100
O133        O  0.87909856  0.24618546  0.55226488    -0.80200
O134        O  0.09491903  0.21736743  0.45105475    -0.80100
O135        O  0.03181487  0.15737916  0.55530432    -0.80100
O136        O  0.92436941  0.17303043  0.45119383    -0.80200
Co137      Co  0.06719889  0.26826418  0.50177376     1.51500
Co138      Co  0.92039953  0.28852177  0.50257134     1.51700
Co139      Co  0.98443157  0.21476108  0.42983855     1.51600
Co140      Co  0.98444898  0.21331020  0.57515170     1.51500
O141        O  0.98927890  0.24649692  0.50248601    -1.42100
C142        C  0.07933590  0.16890016  0.55702081     1.09500
C143        C  0.88200179  0.19647276  0.44750588     1.09600
C144        C  0.07961994  0.17204607  0.44152536     1.09500
C145        C  0.87958575  0.19779312  0.55723818     1.09500
O146        O  0.06954621  0.74074609  0.39482055    -0.80100
O147        O  0.94542937  0.72322081  0.59657997    -0.80100
O148        O  0.05616275  0.66303574  0.55028545    -0.80200
O149        O  0.96377710  0.66506017  0.43470089    -0.80100
O150        O  0.04230730  0.72332861  0.60706141    -0.80200
O151        O  0.97172175  0.73157297  0.38318900    -0.80100
O152        O  0.95018620  0.66025611  0.54192521    -0.80100
O153        O  0.06855335  0.67166310  0.44246568    -0.80200
C154        C  0.07764238  0.69319666  0.40027899     1.09600
C155        C  0.93878881  0.67635644  0.58567889     1.09500
C156        C  0.05298680  0.67726247  0.59616546     1.09600
C157        C  0.96549799  0.68364794  0.39026454     1.09500
O158        O  0.95214621  0.82586629  0.44010167    -0.80100
O159        O  0.05480210  0.82455641  0.55952779    -0.80200
O160        O  0.11840934  0.77128444  0.46288848    -0.80100
O161        O  0.89328646  0.75521835  0.53153912    -0.80100
O162        O  0.94411591  0.82158522  0.54641958    -0.80200
O163        O  0.06069083  0.83244043  0.45409820    -0.80100
O164        O  0.90335298  0.75743853  0.43506336    -0.80100
O165        O  0.10782521  0.75958327  0.55812804    -0.80200
Co166      Co  0.01252428  0.78203382  0.42493840     1.51500
Co167      Co  0.99768051  0.77362811  0.57014491     1.51700
Co168      Co  0.08067396  0.71624457  0.50225835     1.51600
Co169      Co  0.93476026  0.71005508  0.48665911     1.51500
O170        O  0.00635499  0.74575532  0.49609379    -1.42100
C171        C  0.90842146  0.80571368  0.43255554     1.09500
C172        C  0.09920320  0.80625552  0.56747394     1.09600
C173        C  0.10716666  0.81833654  0.45663947     1.09500
C174        C  0.89942456  0.80185265  0.54355894     1.09500
C175        C  0.72204870  0.90067147  0.64023306     0.20400
C176        C  0.77467841  0.90896788  0.63392688    -0.39500
C177        C  0.79895370  0.87683657  0.59964399     0.19300
C178        C  0.77259308  0.83874132  0.57424615     0.22000
C179        C  0.71944998  0.83084714  0.57987686    -0.40000
C180        C  0.69490931  0.86391207  0.61367129     0.20800
N181        N  0.69116997  0.92648720  0.67093543    -0.33300
C182        C  0.64340841  0.90809533  0.66282539    -0.10900
C183        C  0.64386407  0.86820316  0.62767768    -0.29700
N184        N  0.80541801  0.80976825  0.54840600    -0.46300
C185        C  0.85283999  0.82965402  0.55705778    -0.05500
C186        C  0.85037032  0.87209745  0.58841522    -0.22900
H187        H  0.79536368  0.93784747  0.65502033     0.18900
H188        H  0.69906860  0.80083714  0.56002701     0.17700
H189        H  0.61158343  0.84601879  0.61396986     0.14000
H190        H  0.88201935  0.89348311  0.60449805     0.13800
H191        H  0.70184781  0.95641514  0.69488474     0.32000
H192        H  0.79637388  0.77607745  0.52922538     0.34800
C193        C  0.20676114  0.88705256  0.59531164     0.20400
C194        C  0.24137379  0.92869023  0.59117506    -0.39500
C195        C  0.29112641  0.91985629  0.61051308     0.19300
C196        C  0.30502432  0.87299523  0.63097802     0.22000
C197        C  0.27096287  0.83212834  0.63489025    -0.40000
C198        C  0.22170939  0.84120413  0.61699823     0.20800
N199        N  0.15777484  0.88346624  0.57847717    -0.33300
C200        C  0.14256255  0.83476219  0.58981482    -0.10900
C201        C  0.18134286  0.80820769  0.61455258    -0.29700
N202        N  0.35131173  0.87521205  0.65235629    -0.46300
C203        C  0.36703767  0.92409939  0.64738842    -0.05500
C204        C  0.33146982  0.95304268  0.62002624    -0.22900
H205        H  0.23010328  0.96539779  0.57568008     0.18900
H206        H  0.28171386  0.79604208  0.65210738     0.17700
H207        H  0.18146490  0.76817421  0.62546415     0.14000
H208        H  0.33257656  0.99358922  0.61252026     0.13800
H209        H  0.13774926  0.91066038  0.55729366     0.32000
H210        H  0.36842952  0.84677080  0.67449398     0.34800
C211        C  0.74746637  0.16156456  0.57054647     0.20400
C212        C  0.69476768  0.17053636  0.57687337    -0.39500
C213        C  0.66479681  0.12779343  0.59034431     0.19300
C214        C  0.68593968  0.07972761  0.59668147     0.22000
C215        C  0.73862043  0.07067329  0.58974790    -0.40000
C216        C  0.76866593  0.11353052  0.57669693     0.20800
N217        N  0.78435552  0.19673680  0.56268252    -0.33300
C218        C  0.82962988  0.17133033  0.56394283    -0.10900
C219        C  0.82140364  0.11907597  0.57230327    -0.29700
N220        N  0.65202696  0.04807954  0.61897766    -0.46300
C221        C  0.60933890  0.07584734  0.62799058    -0.05500
C222        C  0.61540320  0.12560727  0.60934125    -0.22900
H223        H  0.67888560  0.20869106  0.57488469     0.18900
H224        H  0.75548748  0.03365883  0.59744120     0.17700
H225        H  0.85005259  0.08950408  0.57607327     0.14000
H226        H  0.59060745  0.15786936  0.61645421     0.13800
H227        H  0.77905130  0.23607746  0.55784068     0.32000
H228        H  0.65991971  0.01146934  0.63334642     0.34800
C229        C  0.17081791  0.09333638  0.62249534     0.20400
C230        C  0.19323140  0.07244077  0.66648997    -0.39500
C231        C  0.24733203  0.07227558  0.66769494     0.19300
C232        C  0.27661590  0.09122076  0.62804602     0.22000
C233        C  0.25441146  0.11196247  0.58448776    -0.40000
C234        C  0.20080776  0.11247729  0.58351158     0.20800
N235        N  0.12092783  0.10484946  0.61463303    -0.33300
C236        C  0.11974893  0.13226409  0.57079336    -0.10900
C237        C  0.16895301  0.13752930  0.55081631    -0.29700
N238        N  0.32690971  0.08858953  0.63862904    -0.46300
C239        C  0.33017120  0.06761235  0.68540449    -0.05500
C240        C  0.28130322  0.05712941  0.70499647    -0.22900
H241        H  0.17037997  0.05925837  0.69820489     0.18900
H242        H  0.27727232  0.12871473  0.55442219     0.17700
H243        H  0.18065395  0.16176482  0.51945372     0.14000
H244        H  0.27198503  0.04045626  0.74144677     0.13800
H245        H  0.09086423  0.09987812  0.64030722     0.32000
H246        H  0.35721974  0.10028233  0.61538470     0.34800
C247        C  0.72604862  0.92938516  0.37053989     0.20400
C248        C  0.77976651  0.93510427  0.37355630    -0.39500
C249        C  0.80626303  0.89437686  0.39655102     0.19300
C250        C  0.78075666  0.85120570  0.41403754     0.22000
C251        C  0.72717085  0.84613042  0.41220380    -0.40000
C252        C  0.70069282  0.88708048  0.39022092     0.20800
N253        N  0.69307236  0.95911613  0.34491842    -0.33300
C254        C  0.64628304  0.93627671  0.34914879    -0.10900
C255        C  0.64939898  0.89142597  0.37766848    -0.29700
N256        N  0.81423119  0.81551821  0.42894730    -0.46300
C257        C  0.86169040  0.83592637  0.42240697    -0.05500
C258        C  0.85846562  0.88553002  0.40246049    -0.22900
H259        H  0.79956578  0.96776877  0.35722548     0.18900
H260        H  0.70770209  0.81171988  0.42500921     0.17700
H261        H  0.61947068  0.86316782  0.38367803     0.14000
H262        H  0.88981884  0.91048228  0.39137229     0.13800
H263        H  0.70226929  0.99153122  0.32334299     0.32000
H264        H  0.80525429  0.77850971  0.44132056     0.34800
C265        C  0.20024621  0.90097511  0.40288795     0.20400
C266        C  0.22191480  0.92472400  0.36030155    -0.39500
C267        C  0.27552726  0.92442048  0.35788973     0.19300
C268        C  0.30589182  0.90412452  0.39591074     0.22000
C269        C  0.28426299  0.88008889  0.43854775    -0.40000
C270        C  0.23038060  0.87850000  0.43997415     0.20800
N271        N  0.15070873  0.88769680  0.40874418    -0.33300
C272        C  0.14943591  0.85479420  0.44843081    -0.10900
C273        C  0.19826756  0.84869950  0.46924971    -0.29700
N274        N  0.35583133  0.90608363  0.38278545    -0.46300
C275        C  0.35669084  0.92660973  0.33557383    -0.05500
C276        C  0.30740108  0.93824733  0.31888969    -0.22900
H277        H  0.19865137  0.93899132  0.32943094     0.18900
H278        H  0.30753443  0.86071921  0.46656775     0.17700
H279        H  0.20969394  0.82121386  0.49783938     0.14000
H280        H  0.29633972  0.95423795  0.28265155     0.13800
H281        H  0.12095487  0.89491556  0.38325482     0.32000
H282        H  0.38698433  0.89237699  0.40357484     0.34800
C283        C  0.68230549  0.09168594  0.40963173     0.20400
C284        C  0.73105064  0.07955518  0.42922031    -0.39500
C285        C  0.76738909  0.11952682  0.42811976     0.19300
C286        C  0.75517998  0.16768409  0.40983752     0.22000
C287        C  0.70694857  0.17974964  0.39054156    -0.40000
C288        C  0.67125292  0.13990548  0.39075416     0.20800
N289        N  0.64431753  0.05882263  0.39803092    -0.33300
C290        C  0.61045149  0.08584562  0.36972156    -0.10900
C291        C  0.62531200  0.13684829  0.36579288    -0.29700
N292        N  0.79544815  0.19913696  0.41244063    -0.46300
C293        C  0.83408366  0.17145449  0.43259831    -0.05500
C294        C  0.81853395  0.12111090  0.44248201    -0.22900
H295        H  0.74063950  0.04131831  0.44193335     0.18900
H296        H  0.69864558  0.21687978  0.37416043     0.17700
H297        H  0.60891811  0.16578176  0.34124195     0.14000
H298        H  0.84065482  0.09080995  0.45984671     0.13800
H299        H  0.64403181  0.01953553  0.40472472     0.32000
H300        H  0.79625738  0.23803060  0.40197594     0.34800
C301        C  0.25869436  0.09478987  0.33039833     0.20400
C302        C  0.21371690  0.12254591  0.32141726    -0.39500
C303        C  0.17734048  0.12159876  0.36036273     0.19300
C304        C  0.18427235  0.09377519  0.40445362     0.22000
C305        C  0.23003610  0.06662907  0.41393618    -0.40000
C306        C  0.26742776  0.06894729  0.37538020     0.20800
N307        N  0.29892995  0.09046643  0.29917831    -0.33300
C308        C  0.33453617  0.06256759  0.32428066    -0.10900
C309        C  0.31662230  0.04886984  0.37247877    -0.29700
N310        N  0.14526568  0.10233651  0.43678475    -0.46300
C311        C  0.11482094  0.13777660  0.41416555    -0.05500
C312        C  0.13339453  0.14995226  0.36612388    -0.22900
H313        H  0.20818726  0.14471960  0.28714847     0.18900
H314        H  0.23671109  0.04670731  0.44932819     0.17700
H315        H  0.33597080  0.02569426  0.40057737     0.14000
H316        H  0.11951439  0.17961148  0.34091813     0.13800
H317        H  0.30205695  0.10568198  0.26266110     0.32000
H318        H  0.14125272  0.08708519  0.47305611     0.34800
C319        C  0.67206887  0.72276827  0.13026112     0.20400
C320        C  0.68266341  0.76759371  0.15729096    -0.39500
C321        C  0.64869517  0.80821468  0.14961693     0.19300
C322        C  0.60716138  0.80489566  0.11732789     0.22000
C323        C  0.59602293  0.75941382  0.09060935    -0.40000
C324        C  0.63009838  0.71825345  0.09858121     0.20800
N325        N  0.70130738  0.68077642  0.12819016    -0.33300
C326        C  0.67849356  0.64860864  0.09491482    -0.10900
C327        C  0.63300672  0.67013224  0.07646351    -0.29700
N328        N  0.57863445  0.84781800  0.12022362    -0.46300
C329        C  0.60146377  0.87793243  0.15561850    -0.05500
C330        C  0.64568009  0.85445912  0.17398115    -0.22900
H331        H  0.71510087  0.77057946  0.18268526     0.18900
H332        H  0.56322960  0.75624816  0.06569365     0.17700
H333        H  0.60835340  0.65504613  0.04713508     0.14000
H334        H  0.66901685  0.86683176  0.20556741     0.13800
H335        H  0.73685772  0.67576126  0.14571896     0.32000
H336        H  0.54352586  0.85422242  0.10245530     0.34800
C337        C  0.61992874  0.31399216  0.11151069     0.20400
C338        C  0.58983304  0.29508383  0.15174072    -0.39500
C339        C  0.58783094  0.24140878  0.15706696     0.19300
C340        C  0.61254455  0.20895766  0.12402286     0.22000
C341        C  0.64415161  0.22782061  0.08511876    -0.40000
C342        C  0.64714080  0.28138540  0.08060925     0.20800
N343        N  0.63113785  0.36336761  0.10045394    -0.33300
C344        C  0.66694723  0.36208250  0.06322667    -0.10900
C345        C  0.67804594  0.31149084  0.05050669    -0.29700
N346        N  0.60326010  0.15958449  0.13618750    -0.46300
C347        C  0.57308545  0.16038387  0.17794020    -0.05500
C348        C  0.56402873  0.21086220  0.19286226    -0.22900
H349        H  0.57025133  0.32027791  0.17761012     0.18900
H350        H  0.66565835  0.20266750  0.06072808     0.17700
H351        H  0.70805621  0.29808374  0.02594725     0.14000
H352        H  0.54296827  0.22368990  0.22561665     0.13800
H353        H  0.61836487  0.39565546  0.11973268     0.32000
H354        H  0.61719643  0.12731816  0.11766621     0.34800
C355        C  0.60913477  0.82071742  0.90536703     0.20400
C356        C  0.64282626  0.79932908  0.94141421    -0.39500
C357        C  0.64301454  0.74524567  0.94452440     0.19300
C358        C  0.61136064  0.71487441  0.91498318     0.22000
C359        C  0.57834044  0.73616776  0.87905188    -0.40000
C360        C  0.57902395  0.78961991  0.87519178     0.20800
N361        N  0.60497593  0.87038474  0.89060193    -0.33300
C362        C  0.57258606  0.86991910  0.85017941    -0.10900
C363        C  0.55652114  0.82020656  0.83969513    -0.29700
N364        N  0.62245883  0.66485381  0.92069770    -0.46300
C365        C  0.66248131  0.66300759  0.95318360    -0.05500
C366        C  0.67602837  0.71238477  0.96913584    -0.22900
H367        H  0.66900194  0.82270990  0.96326331     0.18900
H368        H  0.55581429  0.71264641  0.85371393     0.17700
H369        H  0.53353360  0.80747731  0.80806861     0.14000
H370        H  0.70842557  0.72301216  0.99251763     0.13800
H371        H  0.62513724  0.90176755  0.90493728     0.32000
H372        H  0.60713683  0.63444694  0.90001497     0.34800
C373        C  0.61668354  0.31846034  0.88386052     0.20400
C374        C  0.57864288  0.29608785  0.85311502    -0.39500
C375        C  0.58181459  0.24255307  0.84688837     0.19300
C376        C  0.61899087  0.21327794  0.87055047     0.22000
C377        C  0.65758647  0.23570099  0.89996052    -0.40000
C378        C  0.65513253  0.28904053  0.90508951     0.20800
N379        N  0.62473545  0.36882222  0.89333265    -0.33300
C380        C  0.66932803  0.37096792  0.91984998    -0.10900
C381        C  0.68931004  0.32204855  0.92693240    -0.29700
N382        N  0.61412944  0.16342338  0.85844553    -0.46300
C383        C  0.57420632  0.16091035  0.82582381    -0.05500
C384        C  0.55352799  0.20957295  0.81723157    -0.22900
H385        H  0.54964723  0.31873839  0.83428162     0.18900
H386        H  0.68821260  0.21341167  0.91656448     0.17700
H387        H  0.72602009  0.31217354  0.94323679     0.14000
H388        H  0.52197641  0.21936592  0.79245468     0.13800
H389        H  0.60319320  0.39967093  0.88001733     0.32000
H390        H  0.63778924  0.13339332  0.86991847     0.34800
C391        C  0.88806554  0.60237443  0.78835432     0.20400
C392        C  0.92058991  0.58765266  0.74829937    -0.39500
C393        C  0.90936125  0.60913134  0.70038408     0.19300
C394        C  0.86909831  0.64265796  0.69352379     0.22000
C395        C  0.83662239  0.65679220  0.73301911    -0.40000
C396        C  0.84758975  0.63537009  0.78029076     0.20800
N397        N  0.88735325  0.58457277  0.83652853    -0.33300
C398        C  0.84508302  0.60535162  0.85824991    -0.10900
C399        C  0.82034407  0.63804145  0.82443413    -0.29700
N400        N  0.87033660  0.66352895  0.64718743    -0.46300
C401        C  0.91232489  0.64467464  0.62387586    -0.05500
C402        C  0.93644618  0.60864956  0.65517229    -0.22900
H403        H  0.95249730  0.56196044  0.75408667     0.18900
H404        H  0.80519051  0.68311559  0.72739571     0.17700
H405        H  0.78392464  0.65696057  0.82980659     0.14000
H406        H  0.97252882  0.58980409  0.64838263     0.13800
H407        H  0.91086846  0.55622665  0.85186550     0.32000
H408        H  0.84790762  0.69411639  0.63463552     0.34800
C409        C  0.95616554  0.62910093  0.26748485     0.20400
C410        C  0.95836810  0.62999016  0.21441933    -0.39500
C411        C  0.92708113  0.59415523  0.18974422     0.19300
C412        C  0.89605441  0.56019668  0.21630944     0.22000
C413        C  0.89530719  0.55806876  0.26929135    -0.40000
C414        C  0.92653540  0.59383009  0.29388109     0.20800
N415        N  0.97553459  0.66423076  0.29908332    -0.33300
C416        C  0.95858524  0.65094775  0.34585546    -0.10900
C417        C  0.92852318  0.60678187  0.34433210    -0.29700
N418        N  0.86248454  0.53765639  0.18517453    -0.46300
C419        C  0.87202650  0.55706447  0.13846624    -0.05500
C420        C  0.91294947  0.59157198  0.13942387    -0.22900
H421        H  0.97967340  0.65909940  0.19389523     0.18900
H422        H  0.86917798  0.53317640  0.28980201     0.17700
H423        H  0.90727214  0.58936700  0.37516304     0.14000
H424        H  0.92589690  0.61626351  0.10893098     0.13800
H425        H  0.99696207  0.69668562  0.28916131     0.32000
H426        H  0.83201368  0.51374382  0.19575814     0.34800
C427        C  0.91046907  0.40929991  0.69552605     0.20400
C428        C  0.88294851  0.45025135  0.71640626    -0.39500
C429        C  0.87871209  0.45015278  0.76954920     0.19300
C430        C  0.90183132  0.41336912  0.79969665     0.22000
C431        C  0.92794957  0.37195643  0.77885901    -0.40000
C432        C  0.93049483  0.37107991  0.72599838     0.20800
N433        N  0.91527955  0.39704516  0.64612838    -0.33300
C434        C  0.93706890  0.34997058  0.64576822    -0.10900
C435        C  0.94604668  0.33263209  0.69486429    -0.29700
N436        N  0.88897992  0.41922988  0.84853820    -0.46300
C437        C  0.85591778  0.45888355  0.84953953    -0.05500
C438        C  0.84833851  0.47895853  0.80098769    -0.22900
H439        H  0.86372535  0.47834685  0.69299687     0.18900
H440        H  0.94262378  0.34100979  0.80201245     0.17700
H441        H  0.95828984  0.29494665  0.70652424     0.14000
H442        H  0.82148725  0.50836987  0.78979460     0.13800
H443        H  0.90122893  0.41748262  0.61506179     0.32000
H444        H  0.89813588  0.39472166  0.87853792     0.34800
C445        C  0.89910857  0.40523476  0.19873575     0.20400
C446        C  0.92945629  0.41636948  0.24179928    -0.39500
C447        C  0.91843788  0.38732393  0.28590100     0.19300
C448        C  0.88047922  0.35016529  0.28622729     0.22000
C449        C  0.85064157  0.33906994  0.24370408    -0.40000
C450        C  0.86125377  0.36801330  0.20034009     0.20800
N451        N  0.89723862  0.43080969  0.15408790    -0.33300
C452        C  0.85674515  0.41066146  0.12826147    -0.10900
C453        C  0.83452728  0.37064007  0.15574155    -0.29700
N454        N  0.87919192  0.32534060  0.33058776    -0.46300
C455        C  0.91691174  0.34557569  0.35956680    -0.05500
C456        C  0.94180681  0.38544320  0.33333468    -0.22900
H457        H  0.95885193  0.44579510  0.24121811     0.18900
H458        H  0.82055181  0.31034361  0.24459920     0.17700
H459        H  0.79925826  0.35047243  0.14694935     0.14000
H460        H  0.97547384  0.40654876  0.34519092     0.13800
H461        H  0.91893376  0.46296631  0.14402064     0.32000
H462        H  0.85662832  0.29311903  0.33919111     0.34800
C463        C  0.40702608  0.75833569  0.82647590     0.20400
C464        C  0.38416524  0.71074944  0.81668527    -0.39500
C465        C  0.37982356  0.67758090  0.85823606     0.19300
C466        C  0.39853738  0.69009634  0.90557380     0.22000
C467        C  0.42103591  0.73812334  0.91551496    -0.40000
C468        C  0.42366681  0.77216412  0.87422780     0.20800
N469        N  0.41294002  0.79721570  0.79375215    -0.33300
C470        C  0.43237625  0.83673548  0.82071828    -0.10900
C471        C  0.43942247  0.82283089  0.87134146    -0.29700
N472        N  0.38545050  0.65384008  0.93953666    -0.46300
C473        C  0.35644821  0.61918680  0.91425946    -0.05500
C474        C  0.35264040  0.63247471  0.86327360    -0.22900
H475        H  0.36861254  0.70127233  0.77992177     0.18900
H476        H  0.43312264  0.74906224  0.95312844     0.17700
H477        H  0.45510119  0.84607191  0.90143196     0.14000
H478        H  0.32879418  0.61441448  0.83490274     0.13800
H479        H  0.40369175  0.79710869  0.75529716     0.32000
H480        H  0.39328133  0.65446957  0.97807642     0.34800
C481        C  0.42076517  0.19481996  0.90702905     0.20400
C482        C  0.43140511  0.24601252  0.92071636    -0.39500
C483        C  0.38835474  0.27690298  0.93014704     0.19300
C484        C  0.33905761  0.25747579  0.92647079     0.22000
C485        C  0.32855581  0.20664023  0.91340984    -0.40000
C486        C  0.37118344  0.17616967  0.90361367     0.20800
N487        N  0.45378484  0.16033134  0.88844210    -0.33300
C488        C  0.42515232  0.12017905  0.87201328    -0.10900
C489        C  0.37341683  0.12842337  0.88187685    -0.29700
N490        N  0.30452642  0.29413777  0.93414387    -0.46300
C491        C  0.33112386  0.33782776  0.94319862    -0.05500
C492        C  0.38399317  0.32883529  0.94103513    -0.22900
H493        H  0.47008770  0.26126421  0.92129321     0.18900
H494        H  0.28973686  0.19260180  0.90857779     0.17700
H495        H  0.34127199  0.10586323  0.86845970     0.14000
H496        H  0.41474389  0.35621897  0.94659696     0.13800
H497        H  0.49305971  0.16551504  0.88382718     0.32000
H498        H  0.26470655  0.28955639  0.93314764     0.34800
C499        C  0.40011162  0.69586013  0.09490969     0.20400
C500        C  0.43863467  0.71707155  0.12564782    -0.39500
C501        C  0.44121150  0.77089031  0.12658462     0.19300
C502        C  0.40884083  0.80151170  0.09811931     0.22000
C503        C  0.37025750  0.78031662  0.06758033    -0.40000
C504        C  0.36687951  0.72662728  0.06764981     0.20800
N505        N  0.38629815  0.64606416  0.09137975    -0.33300
C506        C  0.34335921  0.64545551  0.06242367    -0.10900
C507        C  0.33025392  0.69499290  0.04708544    -0.29700
N508        N  0.41492067  0.85125311  0.11023523    -0.46300
C509        C  0.45030796  0.85218387  0.14775679    -0.05500
C510        C  0.46787618  0.80285621  0.15851273    -0.22900
H511        H  0.46278737  0.69352582  0.14947348     0.18900
H512        H  0.34284626  0.80395120  0.04761856     0.17700
H513        H  0.29722732  0.70643531  0.02502263     0.14000
H514        H  0.49351793  0.79153726  0.18873205     0.13800
H515        H  0.40325843  0.61493674  0.10970243     0.32000
H516        H  0.39261817  0.88186123  0.09760439     0.34800
C517        C  0.36030534  0.27611188  0.07663539     0.20400
C518        C  0.36285044  0.22292928  0.06922737    -0.39500
C519        C  0.39749751  0.19665349  0.10036193     0.19300
C520        C  0.42579848  0.22188235  0.13692207     0.22000
C521        C  0.42471397  0.27518062  0.14294956    -0.40000
C522        C  0.39144655  0.30154918  0.11072734     0.20800
N523        N  0.32595856  0.30836950  0.05683368    -0.33300
C524        C  0.33681778  0.35508268  0.07629981    -0.10900
C525        C  0.37765902  0.35256774  0.11011035    -0.29700
N526        N  0.44712578  0.18818116  0.16852269    -0.46300
C527        C  0.43444995  0.14106295  0.15141968    -0.05500
C528        C  0.40379082  0.14452633  0.10831525    -0.22900
H529        H  0.33751874  0.20319076  0.04330729     0.18900
H530        H  0.44600274  0.29429106  0.17257873     0.17700
H531        H  0.39246604  0.38291264  0.13378370     0.14000
H532        H  0.38378142  0.11365052  0.08945659     0.13800
H533        H  0.29516071  0.29862670  0.03353257     0.32000
H534        H  0.46397612  0.19673741  0.20319069     0.34800
C535        C  0.07213543  0.62105812  0.71708909     0.20400
C536        C  0.06760644  0.61851135  0.77008015    -0.39500
C537        C  0.10739948  0.59307064  0.79540220     0.19300
C538        C  0.14902465  0.57362940  0.76959436     0.22000
C539        C  0.15250168  0.57439899  0.71670687    -0.40000
C540        C  0.11203551  0.59822453  0.69132411     0.20800
N541        N  0.04388540  0.64921439  0.68516180    -0.33300
C542        C  0.06482422  0.64298521  0.63860489    -0.10900
C543        C  0.10710250  0.61081759  0.64078550    -0.29700
N544        N  0.18459712  0.55688807  0.80198548    -0.46300
C545        C  0.16468138  0.56266489  0.84889616    -0.05500
C546        C  0.11649164  0.58560725  0.84655525    -0.22900
H547        H  0.03658393  0.63680990  0.79013250     0.18900
H548        H  0.18545489  0.55945716  0.69690969     0.17700
H549        H  0.13406813  0.60291623  0.61075998     0.14000
H550        H  0.09232351  0.59672414  0.87784227     0.13800
H551        H  0.01430541  0.67406508  0.69497215     0.32000
H552        H  0.22083611  0.54300571  0.79257447     0.34800
C553        C  0.14415671  0.63533543  0.19568477     0.20400
C554        C  0.15551444  0.67041500  0.23377413    -0.39500
C555        C  0.13178421  0.66135831  0.28027488     0.19300
C556        C  0.09930409  0.62020348  0.28897986     0.22000
C557        C  0.08748933  0.58492033  0.25036781    -0.40000
C558        C  0.11123423  0.59428500  0.20317612     0.20800
N559        N  0.16664616  0.63294331  0.15030018    -0.33300
C560        C  0.14897179  0.58978886  0.12812157    -0.10900
C561        C  0.11302856  0.56526928  0.15945699    -0.29700
N562        N  0.07981104  0.62236642  0.33627380    -0.46300
C563        C  0.09921219  0.66605999  0.35665071    -0.05500
C564        C  0.13225729  0.69063479  0.32298008    -0.22900
H565        H  0.18142179  0.70239742  0.22770904     0.18900
H566        H  0.06224636  0.55246461  0.25668630     0.17700
H567        H  0.09497467  0.52848410  0.15356162     0.14000
H568        H  0.15072676  0.72754812  0.32762058     0.13800
H569        H  0.19683907  0.65612802  0.13755014     0.32000
H570        H  0.05199780  0.59815578  0.35197446     0.34800
C571        C  0.07858540  0.34176509  0.72881524     0.20400
C572        C  0.07602702  0.33901824  0.78196115    -0.39500
C573        C  0.10309134  0.37714421  0.80813174     0.19300
C574        C  0.13211884  0.41347883  0.78271890     0.22000
C575        C  0.13303704  0.41741393  0.72957048    -0.40000
C576        C  0.10418845  0.38060031  0.70343525     0.20800
N577        N  0.05971896  0.30785062  0.69584969    -0.33300
C578        C  0.07048445  0.32622343  0.64885971    -0.10900
C579        C  0.09857516  0.37177345  0.65191867    -0.29700
N580        N  0.16181184  0.43900543  0.81538271    -0.46300
C581        C  0.15002250  0.42142426  0.86230821    -0.05500
C582        C  0.11315012  0.38254763  0.85945618    -0.22900
H583        H  0.05605776  0.30826715  0.80142082     0.18900
H584        H  0.15609851  0.44590166  0.71006755     0.17700
H585        H  0.11441945  0.39410340  0.62100322     0.14000
H586        H  0.09979555  0.35805202  0.88992646     0.13800
H587        H  0.04156620  0.27328073  0.70496497     0.32000
H588        H  0.19244323  0.46270107  0.80576490     0.34800
C589        C  0.06447226  0.35951255  0.27972813     0.20400
C590        C  0.06246987  0.35903852  0.22651352    -0.39500
C591        C  0.09307299  0.39571574  0.20154556     0.19300
C592        C  0.12338712  0.43002613  0.22795216     0.22000
C593        C  0.12408712  0.43154533  0.28119831    -0.40000
C594        C  0.09346581  0.39488720  0.30616688     0.20800
N595        N  0.04431586  0.32458285  0.31154546    -0.33300
C596        C  0.06010420  0.33759518  0.35875440    -0.10900
C597        C  0.09031675  0.38188995  0.35708608    -0.29700
N598        N  0.15485424  0.45533409  0.19615081    -0.46300
C599        C  0.14443764  0.43773669  0.14898290    -0.05500
C600        C  0.10541646  0.40090042  0.15070263    -0.22900
H601        H  0.04108967  0.33016662  0.20606864     0.18900
H602        H  0.14915100  0.45730477  0.30165120     0.17700
H603        H  0.11027999  0.39983863  0.38824217     0.14000
H604        H  0.09173125  0.37748012  0.11982761     0.13800
H605        H  0.02253950  0.29251864  0.30148930     0.32000
H606        H  0.18386773  0.48106472  0.20625349     0.34800
loop_ 
_geom_bond_atom_site_label_1 
_geom_bond_atom_site_label_2 
_geom_bond_distance 
_geom_bond_site_symmetry_2 
_ccdc_geom_bond_type 
O1            C9   1.272       .  A
O1          Co21   1.992       .  S
O2           C10   1.266       .  A
O2          Co22   1.976       .  S
O3           C11   1.272       .  A
O3          Co23   2.011       .  S
O4           C12   1.272       .  A
O4          Co24   2.018       .  S
O5           C11   1.270       .  A
O5          Co22   1.990   1_554  S
O6           C12   1.275       .  A
O6          Co21   1.991   1_556  S
O7           C10   1.269       .  A
O7          Co24   2.017       .  S
O8            C9   1.270       .  A
O8          Co23   2.015       .  S
C9          C599   1.481       .  S
C10         C545   1.472       .  S
C11         C560   1.467       .  S
C12         C581   1.477       .  S
O13          C26   1.269       .  A
O13         Co21   2.008   1_556  S
O14          C27   1.266       .  A
O14         Co22   2.003   1_554  S
O15          C28   1.271       .  A
O15         Co23   1.979       .  S
O16          C29   1.267       .  A
O16         Co24   1.974       .  S
O17          C29   1.277       .  A
O17         Co22   2.037       .  S
O18          C28   1.271       .  A
O18         Co21   2.012       .  S
O19          C26   1.268       .  A
O19         Co24   1.994       .  S
O20          C27   1.272       .  A
O20         Co23   1.998       .  S
Co21         O25   2.110       .  S
Co22         O25   2.105   1_556  S
Co23         O25   2.111       .  S
Co24         O25   2.107   1_556  S
C26         C491   1.478       .  S
C27         C506   1.479       .  S
C28         C524   1.467       .  S
C29         C473   1.470       .  S
O30          C38   1.268       .  A
O30         Co50   2.014       .  S
O31          C39   1.266       .  A
O31         Co51   2.005       .  S
O32          C40   1.273       .  A
O32         Co52   1.973       .  S
O33          C41   1.270       .  A
O33         Co53   1.972       .  S
O34          C40   1.277       .  A
O34         Co51   2.025       .  S
O35          C41   1.274       .  A
O35         Co50   2.014       .  S
O36          C39   1.269       .  A
O36         Co53   2.004   1_556  S
O37          C38   1.269       .  A
O37         Co52   2.002   1_554  S
C38         C452   1.480       .  S
C39         C398   1.477       .  S
C40         C437   1.469       .  S
C41         C419   1.465       .  S
O42          C55   1.271       .  A
O42         Co50   2.004       .  S
O43          C56   1.273       .  A
O43         Co51   2.010       .  S
O44          C57   1.277       .  A
O44         Co52   2.028   1_554  S
O45          C58   1.274       .  A
O45         Co53   2.016   1_556  S
O46          C58   1.278       .  A
O46         Co51   1.993       .  S
O47          C57   1.275       .  A
O47         Co50   1.984       .  S
O48          C55   1.269       .  A
O48         Co53   2.019       .  S
O49          C56   1.265       .  A
O49         Co52   1.995       .  S
Co50         O54   2.104   1_554  S
Co51         O54   2.113       .  S
Co52         O54   2.102       .  S
Co53         O54   2.105   1_554  S
C55         C326   1.481       .  S
C56         C380   1.481       .  S
C57         C344   1.482       .  S
C58         C365   1.479       .  S
O59          C67   1.268       .  A
O59         Co79   1.995       .  S
O60          C68   1.270       .  A
O60         Co80   1.992       .  S
O61          C69   1.274       .  A
O61         Co81   2.018       .  S
O62          C70   1.278       .  A
O62         Co82   2.033       .  S
O63          C69   1.271       .  A
O63         Co80   1.979       .  S
O64          C70   1.263       .  A
O64         Co79   1.963       .  S
O65          C68   1.262       .  A
O65         Co82   1.996   1_565  S
O66          C67   1.269       .  A
O66         Co81   2.023   1_545  S
C67         C308   1.481       .  S
C68         C254   1.471       .  S
C69         C275   1.471       .  S
C70         C290   1.460       .  S
O71          C84   1.272       .  A
O71         Co79   2.037       .  S
O72          C85   1.267       .  A
O72         Co80   2.006       .  S
O73          C86   1.272       .  A
O73         Co81   1.984   1_545  S
O74          C87   1.275       .  A
O74         Co82   1.997   1_565  S
O75          C87   1.275       .  A
O75         Co80   2.020       .  S
O76          C86   1.271       .  A
O76         Co79   2.005       .  S
O77          C84   1.267       .  A
O77         Co82   1.978       .  S
O78          C85   1.269       .  A
O78         Co81   1.988       .  S
Co79         O83   2.105       .  S
Co80         O83   2.109   1_565  S
Co81         O83   2.111   1_565  S
Co82         O83   2.105       .  S
C84         C347   1.485       .  S
C85         C509   1.475       .  S
C86         C527   1.466       .  S
C87         C329   1.477       .  S
O88          C96   1.259       .  A
O88        Co108   2.004   1_545  S
O89          C97   1.276       .  A
O89        Co109   2.038   1_565  S
O90          C98   1.272       .  A
O90        Co110   1.978       .  S
O91          C99   1.256       .  A
O91        Co111   1.941       .  S
O92          C98   1.278       .  A
O92        Co109   2.019       .  S
O93          C99   1.280       .  A
O93        Co108   2.043       .  S
O94          C97   1.255       .  A
O94        Co111   1.937       .  S
O95          C96   1.262       .  A
O95        Co110   1.988       .  S
C96         C239   1.475       .  S
C97         C182   1.466       .  S
C98         C221   1.470       .  S
C99         C203   1.453       .  S
O100        C113   1.279       .  A
O100       Co108   2.010       .  S
O101        C114   1.269       .  A
O101       Co109   2.000       .  S
O102        C115   1.288       .  A
O102       Co110   2.045       .  S
O103        C116   1.278       .  A
O103       Co111   2.027       .  S
O104        C116   1.276       .  A
O104       Co109   1.998   1_565  S
O105        C115   1.278       .  A
O105       Co108   1.973   1_545  S
O106        C113   1.271       .  A
O106       Co111   1.995       .  S
O107        C114   1.261       .  A
O107       Co110   1.990       .  S
Co108       O112   2.114   1_565  S
Co109       O112   2.095       .  S
Co110       O112   2.048       .  S
Co111       O112   1.961   1_565  S
C113        C470   1.470       .  S
C114        C383   1.477       .  S
C115        C488   1.472       .  S
C116        C362   1.484       .  S
O117        C125   1.274       .  A
O117       Co137   1.995       .  S
O118        C126   1.273       .  A
O118       Co138   1.988       .  S
O119        C127   1.270       .  A
O119       Co139   2.009       .  S
O120        C128   1.268       .  A
O120       Co140   2.004   1_455  S
O121        C127   1.274       .  A
O121       Co138   2.004       .  S
O122        C128   1.276       .  A
O122       Co137   2.003       .  S
O123        C126   1.274       .  A
O123       Co140   2.016       .  S
O124        C125   1.272       .  A
O124       Co139   2.017   1_455  S
C125        C596   1.481       .  S
C126        C434   1.477       .  S
C127        C455   1.477       .  S
C128        C578   1.480       .  S
O129        C142   1.271       .  A
O129       Co137   2.000       .  S
O130        C143   1.271       .  A
O130       Co138   2.007       .  S
O131        C144   1.267       .  A
O131       Co139   1.985   1_455  S
O132        C145   1.273       .  A
O132       Co140   1.996       .  S
O133        C145   1.270       .  A
O133       Co138   2.020       .  S
O134        C144   1.274       .  A
O134       Co137   2.030       .  S
O135        C142   1.274       .  A
O135       Co140   1.992   1_455  S
O136        C143   1.270       .  A
O136       Co139   1.983       .  S
Co137       O141   2.107   1_455  S
Co138       O141   2.111       .  S
Co139       O141   2.100       .  S
Co140       O141   2.106       .  S
C142        C236   1.472       .  S
C143        C293   1.462       .  S
C144        C311   1.478       .  S
C145        C218   1.481       .  S
O146        C154   1.268       .  A
O146       Co166   2.010       .  S
O147        C155   1.270       .  A
O147       Co167   2.012       .  S
O148        C156   1.274       .  A
O148       Co168   1.980       .  S
O149        C157   1.269       .  A
O149       Co169   1.968       .  S
O150        C156   1.271       .  A
O150       Co167   2.009   1_455  S
O151        C157   1.274       .  A
O151       Co166   2.022   1_655  S
O152        C155   1.269       .  A
O152       Co169   1.993       .  S
O153        C154   1.268       .  A
O153       Co168   1.993       .  S
C154        C563   1.471       .  S
C155        C401   1.471       .  S
C156        C542   1.465       .  S
C157        C416   1.467       .  S
O158        C171   1.269       .  A
O158       Co166   1.995   1_655  S
O159        C172   1.272       .  A
O159       Co167   2.010   1_455  S
O160        C173   1.275       .  A
O160       Co168   2.021       .  S
O161        C174   1.270       .  A
O161       Co169   2.001       .  S
O162        C174   1.274       .  A
O162       Co167   1.981       .  S
O163        C173   1.271       .  A
O163       Co166   1.974       .  S
O164        C171   1.269       .  A
O164       Co169   2.014       .  S
O165        C172   1.267       .  A
O165       Co168   1.994       .  S
Co166       O170   2.107       .  S
Co167       O170   2.106   1_655  S
Co168       O170   2.096       .  S
Co169       O170   2.098   1_655  S
C171        C257   1.479       .  S
C172        C200   1.475       .  S
C173        C272   1.468       .  S
C174        C185   1.464       .  S
C175        C180   1.384       .  A
C175        C176   1.398       .  A
C175        N181   1.332       .  A
C176        C177   1.394       .  A
C176        H187   1.082       .  S
C177        C186   1.380       .  A
C177        C178   1.383       .  A
C178        C179   1.408       .  A
C178        N184   1.337       .  A
C179        C180   1.404       .  A
C179        H188   1.083       .  S
C180        C183   1.387       .  A
N181        C182   1.350       .  A
N181        H191   1.045       .  S
C182        C183   1.400       .  A
C183        H189   1.083       .  S
N184        C185   1.358       .  A
N184        H192   1.044       .  S
C185        C186   1.390       .  A
C186        H190   1.082       .  S
C193        C198   1.383       .  A
C193        C194   1.413       .  A
C193        N199   1.356       .  A
C194        C195   1.414       .  A
C194        H205   1.083       .  S
C195        C204   1.383       .  A
C195        C196   1.386       .  A
C196        C197   1.388       .  A
C196        N202   1.334       .  A
C197        C198   1.390       .  A
C197        H206   1.083       .  S
C198        C201   1.358       .  A
N199        C200   1.362       .  A
N199        H209   1.044       .  S
C200        C201   1.391       .  A
C201        H207   1.083       .  S
N202        C203   1.345       .  A
N202        H210   1.045       .  S
C203        C204   1.399       .  A
C204        H208   1.077       .  S
C211        C216   1.383       .  A
C211        C212   1.406       .  A
C211        N217   1.342       .  A
C212        C213   1.403       .  A
C212        H223   1.083       .  S
C213        C222   1.384       .  A
C213        C214   1.384       .  A
C214        C215   1.408       .  A
C214        N220   1.341       .  A
C215        C216   1.404       .  A
C215        H224   1.083       .  S
C216        C219   1.387       .  A
N217        C218   1.358       .  A
N217        H227   1.045       .  S
C218        C219   1.397       .  A
C219        H225   1.082       .  S
N220        C221   1.354       .  A
N220        H228   1.048       .  S
C221        C222   1.396       .  A
C222        H226   1.083       .  S
C229        C234   1.383       .  A
C229        C230   1.410       .  A
C229        N235   1.353       .  A
C230        C231   1.411       .  A
C230        H241   1.082       .  S
C231        C240   1.383       .  A
C231        C232   1.385       .  A
C232        C233   1.397       .  A
C232        N238   1.343       .  A
C233        C234   1.398       .  A
C233        H242   1.083       .  S
C234        C237   1.366       .  A
N235        C236   1.359       .  A
N235        H245   1.044       .  S
C236        C237   1.394       .  A
C237        H243   1.083       .  S
N238        C239   1.352       .  A
N238        H246   1.045       .  S
C239        C240   1.401       .  A
C240        H244   1.082       .  S
C247        C252   1.383       .  A
C247        C248   1.410       .  A
C247        N253   1.343       .  A
C248        C249   1.407       .  A
C248        H259   1.082       .  S
C249        C258   1.391       .  A
C249        C250   1.383       .  A
C250        C251   1.404       .  A
C250        N256   1.338       .  A
C251        C252   1.400       .  A
C251        H260   1.082       .  S
C252        C255   1.383       .  A
N253        C254   1.359       .  A
N253        H263   1.045       .  S
C254        C255   1.392       .  A
C255        H261   1.082       .  S
N256        C257   1.355       .  A
N256        H264   1.044       .  S
C257        C258   1.399       .  A
C258        H262   1.082       .  S
C265        C270   1.386       .  A
C265        C266   1.400       .  A
C265        N271   1.344       .  A
C266        C267   1.400       .  A
C266        H277   1.082       .  S
C267        C276   1.370       .  A
C267        C268   1.384       .  A
C268        C269   1.404       .  A
C268        N274   1.349       .  A
C269        C270   1.406       .  A
C269        H278   1.083       .  S
C270        C273   1.376       .  A
N271        C272   1.353       .  A
N271        H281   1.045       .  S
C272        C273   1.397       .  A
C273        H279   1.082       .  S
N274        C275   1.356       .  A
N274        H282   1.045       .  S
C275        C276   1.394       .  A
C276        H280   1.083       .  S
C283        C288   1.384       .  A
C283        C284   1.410       .  A
C283        N289   1.344       .  A
C284        C285   1.406       .  A
C284        H295   1.083       .  S
C285        C294   1.387       .  A
C285        C286   1.384       .  A
C286        C287   1.394       .  A
C286        N292   1.332       .  A
C287        C288   1.392       .  A
C287        H296   1.083       .  S
C288        C291   1.370       .  A
N289        C290   1.356       .  A
N289        H299   1.040       .  S
C290        C291   1.389       .  A
C291        H297   1.083       .  S
N292        C293   1.351       .  A
N292        H300   1.051       .  S
C293        C294   1.397       .  A
C294        H298   1.082       .  S
C301        C306   1.383       .  A
C301        C302   1.402       .  A
C301        N307   1.341       .  A
C302        C303   1.400       .  A
C302        H313   1.082       .  S
C303        C312   1.377       .  A
C303        C304   1.382       .  A
C304        C305   1.413       .  A
C304        N310   1.349       .  A
C305        C306   1.412       .  A
C305        H314   1.082       .  S
C306        C309   1.391       .  A
N307        C308   1.355       .  A
N307        H317   1.045       .  S
C308        C309   1.401       .  A
C309        H315   1.082       .  S
N310        C311   1.359       .  A
N310        H318   1.041       .  S
C311        C312   1.394       .  A
C312        H316   1.083       .  S
C319        C324   1.383       .  A
C319        C320   1.401       .  A
C319        N325   1.341       .  A
C320        C321   1.400       .  A
C320        H331   1.083       .  S
C321        C330   1.375       .  A
C321        C322   1.382       .  A
C322        C323   1.414       .  A
C322        N328   1.352       .  A
C323        C324   1.414       .  A
C323        H332   1.082       .  S
C324        C327   1.392       .  A
N325        C326   1.355       .  A
N325        H335   1.045       .  S
C326        C327   1.402       .  A
C327        H333   1.082       .  S
N328        C329   1.361       .  A
N328        H336   1.043       .  S
C329        C330   1.395       .  A
C330        H334   1.083       .  S
C337        C342   1.383       .  A
C337        C338   1.407       .  A
C337        N343   1.351       .  A
C338        C339   1.409       .  A
C338        H349   1.082       .  S
C339        C348   1.380       .  A
C339        C340   1.383       .  A
C340        C341   1.404       .  A
C340        N346   1.348       .  A
C341        C342   1.405       .  A
C341        H350   1.082       .  S
C342        C345   1.374       .  A
N343        C344   1.358       .  A
N343        H353   1.044       .  S
C344        C345   1.398       .  A
C345        H351   1.078       .  S
N346        C347   1.356       .  A
N346        H354   1.044       .  S
C347        C348   1.400       .  A
C348        H352   1.082       .  S
C355        C360   1.383       .  A
C355        C356   1.411       .  A
C355        N361   1.358       .  A
C356        C357   1.415       .  A
C356        H367   1.082       .  S
C357        C366   1.380       .  A
C357        C358   1.386       .  A
C358        C359   1.397       .  A
C358        N364   1.348       .  A
C359        C360   1.399       .  A
C359        H368   1.082       .  S
C360        C363   1.364       .  A
N361        C362   1.362       .  A
N361        H371   1.044       .  S
C362        C363   1.392       .  A
C363        H369   1.082       .  S
N364        C365   1.352       .  A
N364        H372   1.044       .  S
C365        C366   1.403       .  A
C366        H370   1.083       .  S
C373        C378   1.384       .  A
C373        C374   1.409       .  A
C373        N379   1.356       .  A
C374        C375   1.412       .  A
C374        H385   1.082       .  S
C375        C384   1.379       .  A
C375        C376   1.385       .  A
C376        C377   1.400       .  A
C376        N382   1.348       .  A
C377        C378   1.403       .  A
C377        H386   1.082       .  S
C378        C381   1.367       .  A
N379        C380   1.359       .  A
N379        H389   1.044       .  S
C380        C381   1.394       .  A
C381        H387   1.082       .  S
N382        C383   1.353       .  A
N382        H390   1.044       .  S
C383        C384   1.401       .  A
C384        H388   1.082       .  S
C391        C396   1.382       .  A
C391        C392   1.414       .  A
C391        N397   1.353       .  A
C392        C393   1.414       .  A
C392        H403   1.082       .  S
C393        C402   1.389       .  A
C393        C394   1.382       .  A
C394        C395   1.397       .  A
C394        N400   1.338       .  A
C395        C396   1.396       .  A
C395        H404   1.083       .  S
C396        C399   1.369       .  A
N397        C398   1.360       .  A
N397        H407   1.044       .  S
C398        C399   1.393       .  A
C399        H405   1.083       .  S
N400        C401   1.353       .  A
N400        H408   1.045       .  S
C401        C402   1.401       .  A
C402        H406   1.080       .  S
C409        C414   1.385       .  A
C409        C410   1.404       .  A
C409        N415   1.341       .  A
C410        C411   1.402       .  A
C410        H421   1.082       .  S
C411        C420   1.382       .  A
C411        C412   1.385       .  A
C412        C413   1.402       .  A
C412        N418   1.338       .  A
C413        C414   1.399       .  A
C413        H422   1.083       .  S
C414        C417   1.379       .  A
N415        C416   1.356       .  A
N415        H425   1.045       .  S
C416        C417   1.392       .  A
C417        H423   1.082       .  S
N418        C419   1.355       .  A
N418        H426   1.045       .  S
C419        C420   1.393       .  A
C420        H424   1.082       .  S
C427        C432   1.384       .  A
C427        C428   1.407       .  A
C427        N433   1.353       .  A
C428        C429   1.409       .  A
C428        H439   1.082       .  S
C429        C438   1.378       .  A
C429        C430   1.385       .  A
C430        C431   1.398       .  A
C430        N436   1.344       .  A
C431        C432   1.399       .  A
C431        H440   1.083       .  S
C432        C435   1.366       .  A
N433        C434   1.358       .  A
N433        H443   1.044       .  S
C434        C435   1.392       .  A
C435        H441   1.080       .  S
N436        C437   1.352       .  A
N436        H444   1.045       .  S
C437        C438   1.398       .  A
C438        H442   1.082       .  S
C445        C450   1.382       .  A
C445        C446   1.417       .  A
C445        N451   1.354       .  A
C446        C447   1.416       .  A
C446        H457   1.082       .  S
C447        C456   1.395       .  A
C447        C448   1.382       .  A
C448        C449   1.398       .  A
C448        N454   1.337       .  A
C449        C450   1.396       .  A
C449        H458   1.083       .  S
C450        C453   1.371       .  A
N451        C452   1.362       .  A
N451        H461   1.043       .  S
C452        C453   1.393       .  A
C453        H459   1.083       .  S
N454        C455   1.354       .  A
N454        H462   1.048       .  S
C455        C456   1.404       .  A
C456        H460   1.081       .  S
C463        C468   1.384       .  A
C463        C464   1.401       .  A
C463        N469   1.338       .  A
C464        C465   1.399       .  A
C464        H475   1.083       .  S
C465        C474   1.377       .  A
C465        C466   1.383       .  A
C466        C467   1.408       .  A
C466        N472   1.344       .  A
C467        C468   1.405       .  A
C467        H476   1.083       .  S
C468        C471   1.385       .  A
N469        C470   1.354       .  A
N469        H479   1.045       .  S
C470        C471   1.397       .  A
C471        H477   1.082       .  S
N472        C473   1.355       .  A
N472        H480   1.039       .  S
C473        C474   1.394       .  A
C474        H478   1.083       .  S
C481        C486   1.382       .  A
C481        C482   1.413       .  A
C481        N487   1.345       .  A
C482        C483   1.410       .  A
C482        H493   1.083       .  S
C483        C492   1.394       .  A
C483        C484   1.383       .  A
C484        C485   1.400       .  A
C484        N490   1.335       .  A
C485        C486   1.396       .  A
C485        H494   1.082       .  S
C486        C489   1.378       .  A
N487        C488   1.357       .  A
N487        H497   1.040       .  S
C488        C489   1.393       .  A
C489        H495   1.083       .  S
N490        C491   1.355       .  A
N490        H498   1.045       .  S
C491        C492   1.401       .  A
C492        H496   1.082       .  S
C499        C504   1.385       .  A
C499        C500   1.405       .  A
C499        N505   1.351       .  A
C500        C501   1.407       .  A
C500        H511   1.082       .  S
C501        C510   1.376       .  A
C501        C502   1.385       .  A
C502        C503   1.403       .  A
C502        N508   1.349       .  A
C503        C504   1.405       .  A
C503        H512   1.082       .  S
C504        C507   1.374       .  A
N505        C506   1.356       .  A
N505        H515   1.044       .  S
C506        C507   1.398       .  A
C507        H513   1.083       .  S
N508        C509   1.355       .  A
N508        H516   1.045       .  S
C509        C510   1.398       .  A
C510        H514   1.083       .  S
C517        C522   1.383       .  A
C517        C518   1.406       .  A
C517        N523   1.338       .  A
C518        C519   1.402       .  A
C518        H529   1.082       .  S
C519        C528   1.387       .  A
C519        C520   1.384       .  A
C520        C521   1.403       .  A
C520        N526   1.334       .  A
C521        C522   1.397       .  A
C521        H530   1.083       .  S
C522        C525   1.382       .  A
N523        C524   1.356       .  A
N523        H533   1.043       .  S
C524        C525   1.392       .  A
C525        H531   1.082       .  S
N526        C527   1.353       .  A
N526        H534   1.041       .  S
C527        C528   1.395       .  A
C528        H532   1.082       .  S
C535        C540   1.384       .  A
C535        C536   1.407       .  A
C535        N541   1.340       .  A
C536        C537   1.403       .  A
C536        H547   1.083       .  S
C537        C546   1.386       .  A
C537        C538   1.383       .  A
C538        C539   1.401       .  A
C538        N544   1.336       .  A
C539        C540   1.398       .  A
C539        H548   1.082       .  S
C540        C543   1.380       .  A
N541        C542   1.358       .  A
N541        H551   1.045       .  S
C542        C543   1.391       .  A
C543        H549   1.082       .  S
N544        C545   1.354       .  A
N544        H552   1.045       .  S
C545        C546   1.397       .  A
C546        H550   1.082       .  S
C553        C558   1.383       .  A
C553        C554   1.396       .  A
C553        N559   1.338       .  A
C554        C555   1.395       .  A
C554        H565   1.083       .  S
C555        C564   1.367       .  A
C555        C556   1.383       .  A
C556        C557   1.412       .  A
C556        N562   1.352       .  A
C557        C558   1.412       .  A
C557        H566   1.083       .  S
C558        C561   1.387       .  A
N559        C560   1.352       .  A
N559        H569   1.045       .  S
C560        C561   1.401       .  A
C561        H567   1.080       .  S
N562        C563   1.360       .  A
N562        H570   1.044       .  S
C563        C564   1.391       .  A
C564        H568   1.083       .  S
C571        C576   1.382       .  A
C571        C572   1.408       .  A
C571        N577   1.338       .  A
C572        C573   1.403       .  A
C572        H583   1.082       .  S
C573        C582   1.390       .  A
C573        C574   1.382       .  A
C574        C575   1.408       .  A
C574        N580   1.338       .  A
C575        C576   1.403       .  A
C575        H584   1.082       .  S
C576        C579   1.390       .  A
N577        C578   1.358       .  A
N577        H587   1.044       .  S
C578        C579   1.396       .  A
C579        H585   1.082       .  S
N580        C581   1.355       .  A
N580        H588   1.038       .  S
C581        C582   1.397       .  A
C582        H586   1.082       .  S
C589        C594   1.383       .  A
C589        C590   1.408       .  A
C589        N595   1.342       .  A
C590        C591   1.405       .  A
C590        H601   1.082       .  S
C591        C600   1.388       .  A
C591        C592   1.384       .  A
C592        C593   1.409       .  A
C592        N598   1.343       .  A
C593        C594   1.405       .  A
C593        H602   1.082       .  S
C594        C597   1.389       .  A
N595        C596   1.359       .  A
N595        H605   1.045       .  S
C596        C597   1.397       .  A
C597        H603   1.082       .  S
N598        C599   1.358       .  A
N598        H606   1.045       .  S
C599        C600   1.397       .  A
C600        H604   1.082       .  S
