geometry optimzed in LAMMPS
_audit_creation_date              2020-11-30 
_audit_creation_method            'lammps2cif' 
_symmetry_space_group_name_H-M    'P1' 
_symmetry_Int_Tables_number       1 
_symmetry_cell_setting            triclinic 
loop_ 
_symmetry_equiv_pos_as_xyz 
  x,y,z 
_cell_length_a                    73.92417209 
_cell_length_b                    73.95511114546285 
_cell_length_c                    73.95008332604424 
_cell_angle_alpha                 90.01575185558505 
_cell_angle_beta                  89.9626703398487 
_cell_angle_gamma                 89.97393010609595 
loop_ 
_atom_site_label 
_atom_site_type_symbol 
_atom_site_fract_x 
_atom_site_fract_y 
_atom_site_fract_z 
_atom_site_charge 
N1          N  0.52340060  0.08391586  0.49845729    -0.36700
N2          N  0.49534486  0.08791887  0.47148253    -0.57300
N3          N  0.46882094  0.08620869  0.50044177    -0.36700
N4          N  0.49679572  0.08395102  0.52763848    -0.57300
C5          C  0.53344845  0.08733314  0.48353353     0.26800
C6          C  0.53426485  0.08610925  0.51300163     0.26800
C7          C  0.45845936  0.09190053  0.48651510     0.26800
C8          C  0.45914056  0.08871569  0.51573163     0.26800
C9          C  0.50929110  0.08341576  0.46056036     0.35500
C10         C  0.48012632  0.08544984  0.46171120     0.35500
C11         C  0.51169692  0.07915799  0.53706577     0.35500
C12         C  0.48238362  0.07938034  0.53794945     0.35500
C13         C  0.55093018  0.09178459  0.48867565    -0.22000
C14         C  0.55140125  0.09115377  0.50726122    -0.22000
C15         C  0.44210993  0.09839548  0.49306216    -0.22000
C16         C  0.44250896  0.09630043  0.51153549    -0.22000
C17         C  0.50294271  0.07848227  0.44363453    -0.23100
C18         C  0.48443769  0.07957187  0.44442398    -0.23100
C19         C  0.50674861  0.07194968  0.55365090    -0.23100
C20         C  0.48815495  0.07199831  0.55417003    -0.23100
C21         C  0.52769278  0.08456808  0.46548967    -0.18400
C22         C  0.52971036  0.08165785  0.53107175    -0.18400
C23         C  0.46414497  0.08236071  0.53301144    -0.18400
C24         C  0.46247157  0.08913207  0.46804613    -0.18400
H25         H  0.56234460  0.09469921  0.47999939     0.14500
H26         H  0.56321381  0.09350293  0.51557624     0.14500
H27         H  0.43079749  0.10344418  0.48526516     0.14500
H28         H  0.43159815  0.09946413  0.52078197     0.14500
H29         H  0.51077340  0.07445782  0.43194061     0.12800
H30         H  0.47525627  0.07639205  0.43348875     0.12800
H31         H  0.51559819  0.06699506  0.56419823     0.12800
H32         H  0.47987523  0.06711197  0.56520376     0.12800
H33         H  0.51075019  0.07783872  0.49857038     0.26000
H34         H  0.48045220  0.07839134  0.49935505     0.26000
N35         N  0.11754975  0.47152939  0.52365040    -0.36700
N36         N  0.12128028  0.50012183  0.49722584    -0.57300
N37         N  0.11966778  0.47223831  0.46915342    -0.36700
N38         N  0.11768621  0.44384621  0.49574253    -0.57300
C39         C  0.12093393  0.48589054  0.53440978     0.26800
C40         C  0.12015089  0.45648591  0.53366576     0.26800
C41         C  0.12450057  0.48689851  0.45939785     0.26800
C42         C  0.12224746  0.45753990  0.45855338     0.26800
C43         C  0.11616265  0.51002001  0.51173475     0.35500
C44         C  0.11802851  0.51046707  0.48253097     0.35500
C45         C  0.11250119  0.43383588  0.51008624     0.35500
C46         C  0.11321076  0.43425277  0.48086220     0.35500
C47         C  0.12599551  0.47995621  0.55144555    -0.22000
C48         C  0.12566941  0.46133141  0.55093260    -0.22000
C49         C  0.13039844  0.48145407  0.44243232    -0.22000
C50         C  0.12896238  0.46289917  0.44189850    -0.22000
C51         C  0.11013779  0.52690156  0.50630055    -0.23100
C52         C  0.11131637  0.52718785  0.48775666    -0.23100
C53         C  0.10497516  0.41765991  0.50431639    -0.23100
C54         C  0.10539561  0.41794364  0.48575732    -0.23100
C55         C  0.11709353  0.50399022  0.52981660    -0.18400
C56         C  0.11513359  0.43885171  0.52830793    -0.18400
C57         C  0.11697944  0.43971183  0.46297252    -0.18400
C58         C  0.12119842  0.50503017  0.46448143    -0.18400
H59         H  0.12896270  0.48819963  0.56317071     0.14500
H60         H  0.12824095  0.45239805  0.56223505     0.14500
H61         H  0.13462812  0.49003648  0.43135601     0.14500
H62         H  0.13196455  0.45437914  0.43037700     0.14500
H63         H  0.10520217  0.53776904  0.51478151     0.12800
H64         H  0.10744481  0.53833321  0.47910038     0.12800
H65         H  0.09968125  0.40681611  0.51259594     0.12800
H66         H  0.10056886  0.40734951  0.47689050     0.12800
H67         H  0.11087439  0.47205634  0.51131722     0.26000
H68         H  0.11239509  0.47253709  0.48115453     0.26000
N69         N  0.50128657  0.84902000  0.53486770    -0.36700
N70         N  0.47060610  0.85337502  0.50996458    -0.57300
N71         N  0.49489181  0.85567390  0.47966773    -0.36700
N72         N  0.52550475  0.85229105  0.50451077    -0.57300
C73         C  0.48783212  0.85311747  0.54654521     0.26800
C74         C  0.51709540  0.85221988  0.54353978     0.26800
C75         C  0.47930367  0.86049794  0.47137521     0.26800
C76         C  0.50863391  0.86030072  0.46854497     0.26800
C77         C  0.46160493  0.85012482  0.52549386     0.35500
C78         C  0.45811865  0.85338114  0.49661688     0.35500
C79         C  0.53774850  0.84821758  0.51742513     0.35500
C80         C  0.53441590  0.85170468  0.48861450     0.35500
C81         C  0.49515933  0.85844808  0.56297707    -0.22000
C82         C  0.51362995  0.85781676  0.56109671    -0.22000
C83         C  0.48323699  0.86752841  0.45441211    -0.22000
C84         C  0.50172547  0.86759125  0.45272302    -0.22000
C85         C  0.44331852  0.84786845  0.52200543    -0.23100
C86         C  0.44109200  0.85002316  0.50372999    -0.23100
C87         C  0.55449040  0.84485095  0.50971194    -0.23100
C88         C  0.55237505  0.84702896  0.49142110    -0.23100
C89         C  0.46910715  0.85192814  0.54293767    -0.18400
C90         C  0.53457201  0.85005844  0.53610341    -0.18400
C91         C  0.52722199  0.85752386  0.47193893    -0.18400
C92         C  0.46162975  0.85830683  0.47848687    -0.18400
H93         H  0.48795577  0.86253058  0.57505482     0.14500
H94         H  0.52338131  0.86132472  0.57142838     0.14500
H95         H  0.47384588  0.87213987  0.44419795     0.14500
H96         H  0.50920493  0.87231193  0.44105714     0.14500
H97         H  0.43258614  0.84569177  0.53172926     0.12800
H98         H  0.42828978  0.84977469  0.49666037     0.12800
H99         H  0.56704702  0.84182657  0.51659815     0.12800
H100        H  0.56299701  0.84596749  0.48139399     0.12800
H101        H  0.49971404  0.84304394  0.52224429     0.26000
H102        H  0.49609471  0.84824773  0.49149037     0.26000
N103        N  0.88098460  0.47054269  0.47160945    -0.36700
N104        N  0.88308253  0.43913574  0.49476362    -0.57300
N105        N  0.88216107  0.46204290  0.52678122    -0.36700
N106        N  0.88116215  0.49342109  0.50380952    -0.57300
C107        C  0.88585444  0.45775128  0.45943049     0.26800
C108        C  0.88501828  0.48680726  0.46428587     0.26800
C109        C  0.88750178  0.44613901  0.53399746     0.26800
C110        C  0.88643809  0.47514759  0.53880976     0.26800
C111        C  0.88095920  0.43071581  0.47870970     0.35500
C112        C  0.88115874  0.42630883  0.50758598     0.35500
C113        C  0.87788276  0.50600099  0.49102761     0.35500
C114        C  0.87818708  0.50151085  0.51991540     0.35500
C115        C  0.89253822  0.46598097  0.44398047    -0.22000
C116        C  0.89209366  0.48430960  0.44706503    -0.22000
C117        C  0.89497158  0.44912041  0.55095285    -0.22000
C118        C  0.89434895  0.46746015  0.55396504    -0.22000
C119        C  0.87754730  0.41247782  0.48133528    -0.23100
C120        C  0.87766345  0.40967939  0.49967095    -0.23100
C121        C  0.87257406  0.52211473  0.49902182    -0.23100
C122        C  0.87269971  0.51924167  0.51737075    -0.23100
C123        C  0.88418709  0.43885897  0.46178089    -0.18400
C124        C  0.88209675  0.50385028  0.47254810    -0.18400
C125        C  0.88265729  0.49375257  0.53674091    -0.18400
C126        C  0.88496393  0.42895810  0.52605046    -0.18400
H127        H  0.89743858  0.45945993  0.43181990     0.14500
H128        H  0.89659815  0.49459574  0.43768517     0.14500
H129        H  0.90028781  0.43913273  0.56023210     0.14500
H130        H  0.89912426  0.47433333  0.56597197     0.14500
H131        H  0.87576082  0.40217446  0.47109325     0.12800
H132        H  0.87606233  0.39676790  0.50637083     0.12800
H133        H  0.86957643  0.53478383  0.49233681     0.12800
H134        H  0.86985968  0.52924998  0.52767196     0.12800
H135        H  0.87397409  0.46839707  0.48360930     0.26000
H136        H  0.87434864  0.46360258  0.51519685     0.26000
N137        N  0.52527053  0.46822482  0.12473868    -0.36700
N138        N  0.49533743  0.49313878  0.13003269    -0.57300
N139        N  0.47101118  0.46222269  0.12836328    -0.36700
N140        N  0.50105768  0.43725377  0.12502449    -0.57300
C141        C  0.53421929  0.48362613  0.12891111     0.26800
C142        C  0.53715643  0.45441003  0.12638605     0.26800
C143        C  0.45935942  0.47550204  0.13303197     0.26800
C144        C  0.46229753  0.44630496  0.13058655     0.26800
C145        C  0.50855251  0.50511609  0.12601028     0.35500
C146        C  0.47949292  0.50190647  0.12754412     0.35500
C147        C  0.51632198  0.42914846  0.11907371     0.35500
C148        C  0.48729318  0.42596847  0.12092722     0.35500
C149        C  0.55198231  0.47950220  0.13333616    -0.22000
C150        C  0.55378582  0.46105508  0.13187338    -0.22000
C151        C  0.44309041  0.46795475  0.13850858    -0.22000
C152        C  0.44496191  0.44948747  0.13700830    -0.22000
C153        C  0.50110455  0.52175810  0.12168442    -0.23100
C154        C  0.48268901  0.51966403  0.12241940    -0.23100
C155        C  0.51227508  0.41251931  0.11142710    -0.23100
C156        C  0.49387141  0.41047291  0.11266236    -0.23100
C157        C  0.52726514  0.50131023  0.12669944    -0.18400
C158        C  0.53390480  0.43633881  0.12107466    -0.18400
C159        C  0.46890358  0.42928389  0.12492566    -0.18400
C160        C  0.46218171  0.49412588  0.12991851    -0.18400
H161        H  0.56273737  0.48878058  0.13678265     0.14500
H162        H  0.56611660  0.45345699  0.13400963     0.14500
H163        H  0.43092268  0.47507108  0.14248630     0.14500
H164        H  0.43451766  0.43957654  0.13963312     0.14500
H165        H  0.50815381  0.53407820  0.11814417     0.12800
H166        H  0.47281201  0.53005585  0.11947504     0.12800
H167        H  0.52157455  0.40289284  0.10549378     0.12800
H168        H  0.48620698  0.39897515  0.10784522     0.12800
H169        H  0.51276258  0.46751520  0.11842894     0.26000
H170        H  0.48296338  0.46405744  0.12128763     0.26000
N171        N  0.50546158  0.49629818  0.87667265    -0.36700
N172        N  0.53150493  0.46709618  0.87566520    -0.57300
N173        N  0.50271878  0.44073208  0.87234045    -0.36700
N174        N  0.47665472  0.47000250  0.87400899    -0.57300
C175        C  0.52037436  0.50462511  0.88321236     0.26800
C176        C  0.49103352  0.50627996  0.88186954     0.26800
C177        C  0.51683243  0.42995993  0.87675274     0.26800
C178        C  0.48742679  0.43158689  0.87647785     0.26800
C179        C  0.54292721  0.48131442  0.87476805     0.35500
C180        C  0.54146828  0.45223205  0.87202395     0.35500
C181        C  0.46684512  0.48528307  0.87212175     0.35500
C182        C  0.46540336  0.45614759  0.87024693     0.35500
C183        C  0.51534976  0.52011670  0.89253708    -0.22000
C184        C  0.49682717  0.52121595  0.89159476    -0.22000
C185        C  0.51045568  0.41361421  0.88336063    -0.22000
C186        C  0.49188560  0.41468953  0.88331274    -0.22000
C187        C  0.56016439  0.47550870  0.87022243    -0.23100
C188        C  0.55927739  0.45704905  0.86863266    -0.23100
C189        C  0.44934420  0.48116872  0.86683900    -0.23100
C190        C  0.44843201  0.46266012  0.86562408    -0.23100
C191        C  0.53842911  0.49903182  0.88026053    -0.18400
C192        C  0.47281219  0.50251188  0.87764284    -0.18400
C193        C  0.46957623  0.43781758  0.87348349    -0.18400
C194        C  0.53527758  0.43435930  0.87442743    -0.18400
H195        H  0.52410993  0.52967321  0.89931880     0.14500
H196        H  0.48856321  0.53175319  0.89752057     0.14500
H197        H  0.51833112  0.40211933  0.88783671     0.14500
H198        H  0.48273089  0.40417499  0.88776048     0.14500
H199        H  0.57226600  0.48363324  0.86890847     0.12800
H200        H  0.57060024  0.44815700  0.86597227     0.12800
H201        H  0.43822255  0.49047914  0.86483625     0.12800
H202        H  0.43646250  0.45485416  0.86245631     0.12800
H203        H  0.50524749  0.48545613  0.86769698     0.26000
H204        H  0.50348277  0.45293114  0.86537572     0.26000
N205        N  0.99562865  0.58607659  0.03579172    -0.36700
N206        N  0.96887272  0.58614121  0.00662169    -0.57300
N207        N  0.99803598  0.58782346  0.98094097    -0.36700
N208        N  0.02488819  0.58994172  0.00981033    -0.57300
C209        C  0.98023443  0.58706291  0.04561071     0.26800
C210        C  0.00962441  0.58888206  0.04721944     0.26800
C211        C  0.98380082  0.59009306  0.96971804     0.26800
C212        C  0.01306522  0.59194154  0.97146728     0.26800
C213        C  0.95779780  0.58243865  0.02063945     0.35500
C214        C  0.95921051  0.58299705  0.99143369     0.35500
C215        C  0.03489312  0.58709192  0.02481846     0.35500
C216        C  0.03608302  0.58740746  0.99559909     0.35500
C217        C  0.98449533  0.59038320  0.06357178    -0.22000
C218        C  0.00302946  0.59148218  0.06459835    -0.22000
C219        C  0.98984411  0.59589916  0.95295287    -0.22000
C220        C  0.00836384  0.59706402  0.95406004    -0.22000
C221        C  0.94082428  0.57751786  0.01431635    -0.23100
C222        C  0.94174473  0.57782977  0.99579986    -0.23100
C223        C  0.05271992  0.58356630  0.02012380    -0.23100
C224        C  0.05343806  0.58361864  0.00157996    -0.23100
C225        C  0.96253874  0.58379556  0.03909647    -0.18400
C226        C  0.02818468  0.58756940  0.04271410    -0.18400
C227        C  0.03089001  0.58859794  0.97728574    -0.18400
C228        C  0.96582050  0.58515085  0.97365925    -0.18400
H229        H  0.97523507  0.59150386  0.07485964     0.14500
H230        H  0.01075013  0.59358272  0.07684744     0.14500
H231        H  0.98181520  0.59846163  0.94099461     0.14500
H232        H  0.01740845  0.60061646  0.94310868     0.14500
H233        H  0.92902110  0.57393980  0.02220914     0.12800
H234        H  0.93081129  0.57463035  0.98661502     0.12800
H235        H  0.06397008  0.58089306  0.02909404     0.12800
H236        H  0.06535013  0.58107898  0.99344584     0.12800
H237        H  0.99660174  0.58154077  0.02261113     0.26000
H238        H  0.99785682  0.58083730  0.99308466     0.26000
N239        N  0.61893588  0.96654910  0.02743644    -0.36700
N240        N  0.61770758  0.93725432  0.00173949    -0.57300
N241        N  0.61508207  0.96382438  0.97279096    -0.36700
N242        N  0.61832804  0.99321159  0.99840423    -0.57300
C243        C  0.62302184  0.95251860  0.03841298     0.26800
C244        C  0.62228341  0.98188008  0.03673485     0.26800
C245        C  0.61747524  0.94842295  0.96327007     0.26800
C246        C  0.61861732  0.97777356  0.96151606     0.26800
C247        C  0.61540487  0.92768980  0.01712076     0.35500
C248        C  0.61246910  0.92634898  0.98808595     0.35500
C249        C  0.61474343  0.00408662  0.01262465     0.35500
C250        C  0.61392916  0.00271627  0.98343996     0.35500
C251        C  0.62924871  0.95903652  0.05485996    -0.22000
C252        C  0.62865612  0.97761235  0.05384213    -0.22000
C253        C  0.62260797  0.95257752  0.94572431    -0.22000
C254        C  0.62345199  0.97114005  0.94464631    -0.22000
C255        C  0.60904480  0.91050291  0.01318881    -0.23100
C256        C  0.60718354  0.90965235  0.99475847    -0.23100
C257        C  0.60844300  0.02071467  0.00667019    -0.23100
C258        C  0.60793640  0.01984615  0.98814347    -0.23100
C259        C  0.61936931  0.93414653  0.03463322    -0.18400
C260        C  0.61765100  0.99941844  0.03088761    -0.18400
C261        C  0.61569746  0.99622140  0.96557658    -0.18400
C262        C  0.61349274  0.93088392  0.96960668    -0.18400
H263        H  0.63315754  0.95122206  0.06659943     0.14500
H264        H  0.63202979  0.98690901  0.06463140     0.14500
H265        H  0.62514234  0.94321685  0.93475758     0.14500
H266        H  0.62669869  0.97888612  0.93266030     0.14500
H267        H  0.60596377  0.89973092  0.02260107     0.12800
H268        H  0.60256446  0.89804120  0.98714184     0.12800
H269        H  0.60457194  0.03224971  0.01481518     0.12800
H270        H  0.60346920  0.03052708  0.97919438     0.12800
H271        H  0.61165054  0.96582030  0.01547623     0.26000
H272        H  0.60884161  0.96473556  0.98534405     0.26000
N273        N  0.97260844  0.36106809  0.00039787    -0.36700
N274        N  0.99833669  0.35843741  0.97098888    -0.57300
N275        N  0.02801039  0.35859132  0.99692412    -0.36700
N276        N  0.00217318  0.36253952  0.02608266    -0.57300
C277        C  0.96151381  0.36401903  0.98616737     0.26800
C278        C  0.96350431  0.36588521  0.01551167     0.26800
C279        C  0.03668575  0.36197434  0.98118674     0.26800
C280        C  0.03874843  0.36474386  0.01041809     0.26800
C281        C  0.98292719  0.35535045  0.96168658     0.35500
C282        C  0.01210003  0.35369246  0.95995815     0.35500
C283        C  0.98825607  0.36072037  0.03775729     0.35500
C284        C  0.01743170  0.36000888  0.03577342     0.35500
C285        C  0.94503489  0.37055736  0.99232729    -0.22000
C286        C  0.94625231  0.37163140  0.01085806    -0.22000
C287        C  0.05313632  0.37028639  0.98472588    -0.22000
C288        C  0.05444189  0.37201321  0.00318271    -0.22000
C289        C  0.98689371  0.34861142  0.94465480    -0.23100
C290        C  0.00541559  0.34744750  0.94359622    -0.23100
C291        C  0.99470067  0.35697386  0.05496039    -0.23100
C292        C  0.01320944  0.35637831  0.05366736    -0.23100
C293        C  0.96542520  0.35973379  0.96793639    -0.18400
C294        C  0.96998733  0.36412700  0.03342420    -0.18400
C295        C  0.03499674  0.36334232  0.02910579    -0.18400
C296        C  0.03051380  0.35694885  0.96379113    -0.18400
H297        H  0.93322257  0.37387206  0.98434433     0.14500
H298        H  0.93554599  0.37593729  0.01987287     0.14500
H299        H  0.06317380  0.37468423  0.97501706     0.14500
H300        H  0.06565772  0.37799810  0.01042898     0.14500
H301        H  0.97743768  0.34510013  0.93405150     0.12800
H302        H  0.01309103  0.34296084  0.93196166     0.12800
H303        H  0.98692997  0.35528151  0.06724956     0.12800
H304        H  0.02251581  0.35419777  0.06474818     0.12800
H305        H  0.98487400  0.35424948  0.00001667     0.26000
H306        H  0.01633187  0.35086992  0.99840954     0.26000
N307        N  0.38022801  0.99303108  0.99295153    -0.36700
N308        N  0.38002269  0.96657154  0.02195506    -0.57300
N309        N  0.37985077  0.93818931  0.99487426    -0.36700
N310        N  0.37797819  0.96480748  0.96596913    -0.57300
C311        C  0.37689270  0.00373709  0.00736584     0.26800
C312        C  0.37653397  0.00281460  0.97798145     0.26800
C313        C  0.37727936  0.92842103  0.01009709     0.26800
C314        C  0.37555129  0.92748383  0.98069912     0.26800
C315        C  0.38436805  0.98157784  0.03140353     0.35500
C316        C  0.38482436  0.95238134  0.03238351     0.35500
C317        C  0.38250198  0.97893238  0.95530498     0.35500
C318        C  0.38153885  0.94975465  0.95627290     0.35500
C319        C  0.37082853  0.02049407  0.00149830    -0.22000
C320        C  0.37065972  0.01992349  0.98290103    -0.22000
C321        C  0.37117711  0.91127462  0.00558002    -0.22000
C322        C  0.37006283  0.91068883  0.98698529    -0.22000
C323        C  0.39169893  0.97693421  0.04800720    -0.23100
C324        C  0.39202920  0.95840667  0.04861838    -0.23100
C325        C  0.38868874  0.97285211  0.93869520    -0.23100
C326        C  0.38802400  0.95434350  0.93928325    -0.23100
C327        C  0.38117296  0.99940910  0.02545378    -0.18400
C328        C  0.38022915  0.99725402  0.96010986    -0.18400
C329        C  0.37838735  0.93192581  0.96231759    -0.18400
C330        C  0.38207420  0.93407489  0.02771563    -0.18400
H331        H  0.36744774  0.03210937  0.00974621     0.14500
H332        H  0.36710414  0.03098303  0.97400059     0.14500
H333        H  0.36831695  0.90019742  0.01470810     0.14500
H334        H  0.36619711  0.89906106  0.97898200     0.14500
H335        H  0.39643155  0.98594016  0.05852621     0.12800
H336        H  0.39708528  0.95032994  0.05972161     0.12800
H337        H  0.39322301  0.98088760  0.92733897     0.12800
H338        H  0.39201767  0.94531287  0.92847665     0.12800
H339        H  0.38721790  0.98084754  0.99322756     0.26000
H340        H  0.38664886  0.95044460  0.99410839     0.26000
N341        N  0.97587835  0.97027114  0.62263436    -0.36700
N342        N  0.00195636  0.99918038  0.61925277    -0.57300
N343        N  0.03031442  0.97202474  0.61855475    -0.36700
N344        N  0.00435690  0.94316994  0.62400045    -0.57300
C345        C  0.96532435  0.98491829  0.62551857     0.26800
C346        C  0.96662008  0.95571024  0.62863180     0.26800
C347        C  0.04015812  0.98727778  0.62065715     0.26800
C348        C  0.04138118  0.95790242  0.62204356     0.26800
C349        C  0.98675797  0.00834851  0.61494969     0.35500
C350        C  0.01594822  0.00947131  0.61364959     0.35500
C351        C  0.98977017  0.93234619  0.62196983     0.35500
C352        C  0.01888822  0.93326593  0.61896532     0.35500
C353        C  0.94927179  0.97967114  0.63364037    -0.22000
C354        C  0.95010769  0.96119440  0.63565428    -0.22000
C355        C  0.05762796  0.98279846  0.62584022    -0.22000
C356        C  0.05842710  0.96421146  0.62659672    -0.22000
C357        C  0.99109854  0.02466786  0.60682148    -0.23100
C358        C  0.00963045  0.02541116  0.60605265    -0.23100
C359        C  0.99509655  0.91538668  0.61600717    -0.23100
C360        C  0.01355963  0.91597422  0.61408980    -0.23100
C361        C  0.96908900  0.00251339  0.61920729    -0.18400
C362        C  0.97175795  0.93754485  0.62576434    -0.18400
C363        C  0.03692863  0.93956663  0.61915370    -0.18400
C364        C  0.03434506  0.00483976  0.61583445    -0.18400
H365        H  0.93794389  0.98821661  0.63726053     0.14500
H366        H  0.93951358  0.95268022  0.64108608     0.14500
H367        H  0.06881794  0.99194725  0.62813738     0.14500
H368        H  0.07031330  0.95622395  0.62963760     0.14500
H369        H  0.98190988  0.03497695  0.60197730     0.12800
H370        H  0.01751391  0.03636396  0.60039419     0.12800
H371        H  0.98657323  0.90385460  0.61310643     0.12800
H372        H  0.02203409  0.90497308  0.60945573     0.12800
H373        H  0.98733046  0.96991171  0.61451124     0.26000
H374        H  0.01774539  0.97116251  0.61236640     0.26000
N375        N  0.02988179  0.96730616  0.37899878    -0.36700
N376        N  0.00353510  0.93879693  0.38228395    -0.57300
N377        N  0.97508932  0.96602631  0.38245669    -0.36700
N378        N  0.00130514  0.99440093  0.37722481    -0.57300
C379        C  0.04024706  0.95266621  0.37543774     0.26800
C380        C  0.03910698  0.98200378  0.37334320     0.26800
C381        C  0.96527346  0.95070445  0.38118303     0.26800
C382        C  0.96404969  0.97992439  0.37808293     0.26800
C383        C  0.01872038  0.92944048  0.38618227     0.35500
C384        C  0.98963239  0.92882079  0.38859613     0.35500
C385        C  0.01578489  0.00511084  0.38017343     0.35500
C386        C  0.98658178  0.00446145  0.38125915     0.35500
C387        C  0.05620772  0.95810651  0.36722357    -0.22000
C388        C  0.05549108  0.97669503  0.36591602    -0.22000
C389        C  0.94776952  0.95484614  0.37587780    -0.22000
C390        C  0.94701252  0.97334060  0.37384784    -0.22000
C391        C  0.01444062  0.91337011  0.39483055    -0.23100
C392        C  0.99595860  0.91296220  0.39633283    -0.23100
C393        C  0.01021493  0.02209010  0.38591853    -0.23100
C394        C  0.99168856  0.02169677  0.38651036    -0.23100
C395        C  0.03629533  0.93486886  0.38114599    -0.18400
C396        C  0.03389175  0.00002877  0.37679097    -0.18400
C397        C  0.96856061  0.99839975  0.37973898    -0.18400
C398        C  0.97125976  0.93344813  0.38663664    -0.18400
H399        H  0.06741822  0.94962110  0.36312962     0.14500
H400        H  0.06605239  0.98537204  0.36068183     0.14500
H401        H  0.93659373  0.94555570  0.37414874     0.14500
H402        H  0.93513082  0.98110487  0.37026415     0.14500
H403        H  0.02365060  0.90303898  0.39959238     0.12800
H404        H  0.98808686  0.90223136  0.40242482     0.12800
H405        H  0.01858544  0.03358651  0.38935654     0.12800
H406        H  0.98299867  0.03276676  0.39055159     0.12800
H407        H  0.01850315  0.96755259  0.38725151     0.26000
H408        H  0.98769508  0.96710056  0.38853693     0.26000
C409        C  0.65154506  0.86766054  0.65123766     0.80100
N410        N  0.63930038  0.86256754  0.63853743    -0.78200
C411        C  0.63363504  0.87436555  0.62571636     0.82500
N412        N  0.64032194  0.89144358  0.62557626    -0.78200
C413        C  0.65212409  0.89699781  0.63850854     0.82600
N414        N  0.65774805  0.88502992  0.65134078    -0.79900
C415        C  0.65514303  0.06231591  0.63682496     0.80100
N416        N  0.64098302  0.06622129  0.62573718    -0.78200
C417        C  0.63024896  0.05286494  0.61908462     0.82500
N418        N  0.63386494  0.03546060  0.62359684    -0.78200
C419        C  0.64800129  0.03125669  0.63451397     0.82600
N420        N  0.65871283  0.04471453  0.64103203    -0.79900
C421        C  0.89449942  0.60272663  0.66054580     0.80100
N422        N  0.88953505  0.58860236  0.64984491    -0.78200
C423        C  0.90216972  0.57701321  0.64314638     0.82500
N424        N  0.91981556  0.57962546  0.64755731    -0.78200
C425        C  0.92495739  0.59372305  0.65808914     0.82600
N426        N  0.91225533  0.60529090  0.66445168    -0.79900
C427        C  0.08850001  0.61002339  0.65254109     0.80100
N428        N  0.09296268  0.59768965  0.63969481    -0.78200
C429        C  0.08003680  0.58922599  0.62985427     0.82500
N430        N  0.06240455  0.59353429  0.63262562    -0.78200
C431        C  0.05769226  0.60566951  0.64560813     0.82600
N432        N  0.07076587  0.61388403  0.65559945    -0.79900
C433        C  0.65137408  0.61452604  0.91454347     0.80100
N434        N  0.63913726  0.60199654  0.90891161    -0.78200
C435        C  0.62992317  0.59166451  0.92095382     0.82500
N436        N  0.63328684  0.59380437  0.93883280    -0.78200
C437        C  0.64543759  0.60617204  0.94485497     0.82600
N438        N  0.65426064  0.61676226  0.93262782    -0.79900
C439        C  0.64147822  0.62042171  0.10993050     0.80100
N440        N  0.62766554  0.60921008  0.11473298    -0.78200
C441        C  0.61791762  0.60036507  0.10191255     0.82500
N442        N  0.62167570  0.60323089  0.08417458    -0.78200
C443        C  0.63528479  0.61445663  0.07916888     0.82600
N444        N  0.64527596  0.62289201  0.09207376    -0.79900
C445        C  0.90819725  0.62104449  0.36195691     0.80100
N446        N  0.90370847  0.60987771  0.37583292    -0.78200
C447        C  0.91668720  0.60161478  0.38576704     0.82500
N448        N  0.93437965  0.60485106  0.38211053    -0.78200
C449        C  0.93908460  0.61647594  0.36867498     0.82600
N450        N  0.92594737  0.62421993  0.35843928    -0.79900
C451        C  0.10231101  0.61953164  0.34640550     0.80100
N452        N  0.08445380  0.62308905  0.34367145    -0.78200
C453        C  0.07158637  0.61300361  0.35199111     0.82500
N454        N  0.07655079  0.59965769  0.36350154    -0.78200
C455        C  0.09425142  0.59621383  0.36678753     0.82600
N456        N  0.10705794  0.60611113  0.35810384    -0.79900
C457        C  0.65337861  0.87198279  0.36883467     0.80100
N458        N  0.65921802  0.88932979  0.36689794    -0.78200
C459        C  0.65095908  0.90294443  0.37607721     0.82500
N460        N  0.63651737  0.89921250  0.38675426    -0.78200
C461        C  0.63059743  0.88201805  0.38875381     0.82600
N462        N  0.63911995  0.86847269  0.37986184    -0.79900
C463        C  0.64756081  0.06570871  0.35240772     0.80100
N464        N  0.65260451  0.04798315  0.35205890    -0.78200
C465        C  0.64424434  0.03572649  0.36293228     0.82500
N466        N  0.63105239  0.04134895  0.37438286    -0.78200
C467        C  0.62582782  0.05888369  0.37479611     0.82600
N468        N  0.63399581  0.07096247  0.36370317    -0.79900
C469        C  0.90474816  0.31568830  0.64295046     0.80100
N470        N  0.89970380  0.32736737  0.62971989    -0.78200
C471        C  0.91186740  0.33315423  0.61729958     0.82500
N472        N  0.92916334  0.32719765  0.61807026    -0.78200
C473        C  0.93453389  0.31579356  0.63138091     0.82600
N474        N  0.92226498  0.31008102  0.64383563    -0.79900
C475        C  0.09816512  0.32473775  0.64531582     0.80100
N476        N  0.08068634  0.31982743  0.64853052    -0.78200
C477        C  0.06699163  0.32820800  0.63955740     0.82500
N478        N  0.07082146  0.34101061  0.62704118    -0.78200
C479        C  0.08815216  0.34543136  0.62318335     0.82600
N480        N  0.10175756  0.33748328  0.63256306    -0.79900
C481        C  0.35390683  0.86852662  0.65944432     0.80100
N482        N  0.36704614  0.86446049  0.64729579    -0.78200
C483        C  0.37764618  0.87756901  0.64015456     0.82500
N484        N  0.37531733  0.89492433  0.64561678    -0.78200
C485        C  0.36203205  0.89924749  0.65753949     0.82600
N486        N  0.35115787  0.88604827  0.66422009    -0.79900
C487        C  0.34228592  0.06079523  0.64227767     0.80100
N488        N  0.35450160  0.06528946  0.62924434    -0.78200
C489        C  0.36405143  0.05226550  0.62050901     0.82500
N490        N  0.36099303  0.03468541  0.62457369    -0.78200
C491        C  0.34876075  0.02995563  0.63738879     0.82600
N492        N  0.33957575  0.04308446  0.64638939    -0.79900
C493        C  0.65393958  0.32221786  0.89612571     0.80100
N494        N  0.64248403  0.33557176  0.89091798    -0.78200
C495        C  0.63544568  0.34725827  0.90309722     0.82500
N496        N  0.63972513  0.34548882  0.92082206    -0.78200
C497        C  0.65060784  0.33179057  0.92646539     0.82600
N498        N  0.65772518  0.32017887  0.91404458    -0.79900
C499        C  0.65085693  0.32531021  0.09187550     0.80100
N500        N  0.63938557  0.33899254  0.09618820    -0.78200
C501        C  0.63065878  0.34844086  0.08311870     0.82500
N502        N  0.63365636  0.34418568  0.06552246    -0.78200
C503        C  0.64536424  0.33078220  0.06096483     0.82600
N504        N  0.65389695  0.32127296  0.07417106    -0.79900
C505        C  0.35370027  0.61388213  0.90090761     0.80100
N506        N  0.35159573  0.61804220  0.91874394    -0.78200
C507        C  0.36361166  0.61184702  0.93125838     0.82500
N508        N  0.37789085  0.60166604  0.92575498    -0.78200
C509        C  0.37999675  0.59718656  0.90810745     0.82600
N510        N  0.36781150  0.60323321  0.89580128    -0.79900
C511        C  0.35368280  0.61066299  0.09646775     0.80100
N512        N  0.36417611  0.59644821  0.10133080    -0.78200
C513        C  0.37246089  0.58612318  0.08872904     0.82500
N514        N  0.37010376  0.58998976  0.07100814    -0.78200
C515        C  0.35942416  0.60397077  0.06574047     0.82600
N516        N  0.35153890  0.61463269  0.07857153    -0.79900
C517        C  0.35044488  0.87275798  0.35786968     0.80100
N518        N  0.36143170  0.86930355  0.37216860    -0.78200
C519        C  0.36751230  0.88290692  0.38286493     0.82500
N520        N  0.36220227  0.90010073  0.37933172    -0.78200
C521        C  0.35152965  0.90383793  0.36486707     0.82600
N522        N  0.34556953  0.89012121  0.35416036    -0.79900
C523        C  0.34942018  0.06853327  0.35005383     0.80100
N524        N  0.34550538  0.05065033  0.34780249    -0.78200
C525        C  0.35502843  0.03784454  0.35697670     0.82500
N526        N  0.36820296  0.04299775  0.36862623    -0.78200
C527        C  0.37210271  0.06069524  0.37121186     0.82600
N528        N  0.36268520  0.07331078  0.36183664    -0.79900
C529        C  0.89872990  0.32361386  0.34371886     0.80100
N530        N  0.89402955  0.33724582  0.35522598    -0.78200
C531        C  0.90683706  0.34789527  0.36295395     0.82500
N532        N  0.92443521  0.34496281  0.35894027    -0.78200
C533        C  0.92951628  0.33142988  0.34767444     0.82600
N534        N  0.91661713  0.32083641  0.33991405    -0.79900
C535        C  0.09494555  0.32926072  0.34124129     0.80100
N536        N  0.07701129  0.32664578  0.33800795    -0.78200
C537        C  0.06444639  0.33510374  0.34840444     0.82500
N538        N  0.06997013  0.34528696  0.36262795    -0.78200
C539        C  0.08776192  0.34766170  0.36635255     0.82600
N540        N  0.10023763  0.33982980  0.35534767    -0.79900
C541        C  0.35474703  0.32243227  0.89879763     0.80100
N542        N  0.36659978  0.33550290  0.89366462    -0.78200
C543        C  0.37639584  0.34470112  0.90609958     0.82500
N544        N  0.37406269  0.34098307  0.92385567    -0.78200
C545        C  0.36248012  0.32787392  0.92934315     0.82600
N546        N  0.35290362  0.31845266  0.91673006    -0.79900
C547        C  0.36007847  0.30938121  0.09378138     0.80100
N548        N  0.35844816  0.30740997  0.07554075    -0.78200
C549        C  0.37035632  0.31559252  0.06415148     0.82500
N550        N  0.38369252  0.32609724  0.07113365    -0.78200
C551        C  0.38550631  0.32826758  0.08925600     0.82600
N552        N  0.37365273  0.31984023  0.10044638    -0.79900
C553        C  0.14626345  0.37693095  0.15033626     0.80100
N554        N  0.14905432  0.39438504  0.15546237    -0.78200
C555        C  0.14148769  0.40808782  0.14582551     0.82500
N556        N  0.13089420  0.40430669  0.13131795    -0.78200
C557        C  0.12756286  0.38694229  0.12642943     0.82600
N558        N  0.13546223  0.37341579  0.13591394    -0.79900
C559        C  0.14999738  0.57065834  0.15177746     0.80100
N560        N  0.13593502  0.57588661  0.14122573    -0.78200
C561        C  0.12252113  0.56414956  0.13699752     0.82500
N562        N  0.12308590  0.54706541  0.14364591    -0.78200
C563        C  0.13714671  0.54152907  0.15407603     0.82600
N564        N  0.15055764  0.55342816  0.15816064    -0.79900
C565        C  0.39734101  0.11715331  0.13980803     0.80100
N566        N  0.39311108  0.10399447  0.12768982    -0.78200
C567        C  0.40630967  0.09427713  0.11942157     0.82500
N568        N  0.42380648  0.09792804  0.12331668    -0.78200
C569        C  0.42824477  0.11106259  0.13526146     0.82600
N570        N  0.41499929  0.12068335  0.14356746    -0.79900
C571        C  0.59217679  0.11760022  0.14236605     0.80100
N572        N  0.59714957  0.10507433  0.12987942    -0.78200
C573        C  0.58461123  0.09691003  0.11932627     0.82500
N574        N  0.56692984  0.10110950  0.12151491    -0.78200
C575        C  0.56171799  0.11336724  0.13411310     0.82600
N576        N  0.57437439  0.12155662  0.14453486    -0.79900
C577        C  0.40378101  0.11113129  0.84317846     0.80100
N578        N  0.42172301  0.11426894  0.84030922    -0.78200
C579        C  0.43440745  0.10420953  0.84910357     0.82500
N580        N  0.42899263  0.09117489  0.86086745    -0.78200
C581        C  0.41121585  0.08854429  0.86437884     0.82600
N582        N  0.39867001  0.09855017  0.85555027    -0.79900
C583        C  0.59962614  0.10923224  0.84600155     0.80100
N584        N  0.60393181  0.09645518  0.85851026    -0.78200
C585        C  0.59087926  0.08799589  0.86823649     0.82500
N586        N  0.57327723  0.09192309  0.86495383    -0.78200
C587        C  0.56865771  0.10415501  0.85208048     0.82600
N588        N  0.58184497  0.11267736  0.84251805    -0.79900
C589        C  0.40998081  0.82742602  0.14974585     0.80100
N590        N  0.42764289  0.82714077  0.15488765    -0.78200
C591        C  0.43988129  0.83820508  0.14676627     0.82500
N592        N  0.43437130  0.84931112  0.13319494    -0.78200
C593        C  0.41684824  0.84942552  0.12773914     0.82600
N594        N  0.40485464  0.83823692  0.13586203    -0.79900
C595        C  0.60460153  0.82397136  0.15712053     0.80100
N596        N  0.61088372  0.83365774  0.14280647    -0.78200
C597        C  0.59922155  0.84203630  0.13146910     0.82500
N598        N  0.58123621  0.84097650  0.13456224    -0.78200
C599        C  0.57465928  0.83151673  0.14884444     0.82600
N600        N  0.58642525  0.82295681  0.16011031    -0.79900
C601        C  0.84884035  0.37148864  0.14508773     0.80100
N602        N  0.84630875  0.38879558  0.15083438    -0.78200
C603        C  0.85813393  0.40202713  0.14609660     0.82500
N604        N  0.87264352  0.39788964  0.13567004    -0.78200
C605        C  0.87498606  0.38088640  0.12928654     0.82600
N606        N  0.86315060  0.36771460  0.13414438    -0.79900
C607        C  0.84543556  0.56669497  0.15381452     0.80100
N608        N  0.84310879  0.54866744  0.15675518    -0.78200
C609        C  0.85114989  0.53638467  0.14565972     0.82500
N610        N  0.86145474  0.54227297  0.13167004    -0.78200
C611        C  0.86419938  0.56014384  0.12890510     0.82600
N612        N  0.85615377  0.57227963  0.13998919    -0.79900
C613        C  0.85038701  0.11325474  0.39600437     0.80100
N614        N  0.86376137  0.10182654  0.39053892    -0.78200
C615        C  0.87521022  0.09430839  0.40275303     0.82500
N616        N  0.87302487  0.09811210  0.42055581    -0.78200
C617        C  0.85981138  0.10951330  0.42629401     0.82600
N618        N  0.84838922  0.11691638  0.41394218    -0.79900
C619        C  0.85307226  0.11558736  0.59115989     0.80100
N620        N  0.86574100  0.10318285  0.59593565    -0.78200
C621        C  0.87434887  0.09312445  0.58329066     0.82500
N622        N  0.86993476  0.09530965  0.56564936    -0.78200
C623        C  0.85730081  0.10765189  0.56056045     0.82600
N624        N  0.84893219  0.11783759  0.57338163    -0.79900
C625        C  0.15520518  0.82164511  0.40002987     0.80100
N626        N  0.14224667  0.83330288  0.39415371    -0.78200
C627        C  0.12936161  0.83947974  0.40568333     0.82500
N628        N  0.12981389  0.83437354  0.42328498    -0.78200
C629        C  0.14295895  0.82317159  0.42949943     0.82600
N630        N  0.15571979  0.81700464  0.41781375    -0.79900
C631        C  0.15219015  0.82346197  0.59503704     0.80100
N632        N  0.14139303  0.83763577  0.59962637    -0.78200
C633        C  0.13300163  0.84773638  0.58684143     0.82500
N634        N  0.13580968  0.84379247  0.56918674    -0.78200
C635        C  0.14680664  0.82997745  0.56413365     0.82600
N636        N  0.15493335  0.81977601  0.57714636    -0.79900
C637        C  0.84644216  0.36790247  0.85335545     0.80100
N638        N  0.84196951  0.38557050  0.85065297    -0.78200
C639        C  0.84813118  0.39849618  0.86213663     0.82500
N640        N  0.85898844  0.39371790  0.87605417    -0.78200
C641        C  0.86375596  0.37628918  0.87887577     0.82600
N642        N  0.85748061  0.36338360  0.86740004    -0.79900
C643        C  0.85001712  0.56167106  0.85928645     0.80100
N644        N  0.84847849  0.54427346  0.85362966    -0.78200
C645        C  0.86025988  0.53143936  0.85940829     0.82500
N646        N  0.87373290  0.53608027  0.87102816    -0.78200
C647        C  0.87498360  0.55330337  0.87731902     0.82600
N648        N  0.86314854  0.56601725  0.87135820    -0.79900
C649        C  0.85486010  0.82054016  0.41320872     0.80100
N650        N  0.85091295  0.81850398  0.43113205    -0.78200
C651        C  0.86003535  0.82828976  0.44379167     0.82500
N652        N  0.87346396  0.83962652  0.43855723    -0.78200
C653        C  0.87752149  0.84168604  0.42084040     0.82600
N654        N  0.86814300  0.83221207  0.40830954    -0.79900
C655        C  0.85933068  0.81729903  0.60954691     0.80100
N656        N  0.85653335  0.81484110  0.59146135    -0.78200
C657        C  0.86621758  0.82454937  0.57910689     0.82500
N658        N  0.87875337  0.83657196  0.58513072    -0.78200
C659        C  0.88128221  0.83939571  0.60300935     0.82600
N660        N  0.87143035  0.82992518  0.61513044    -0.79900
C661        C  0.39766519  0.81215182  0.85128572     0.80100
N662        N  0.39269347  0.82688251  0.86106304    -0.78200
C663        C  0.40524448  0.83892782  0.86691574     0.82500
N664        N  0.42289986  0.83602350  0.86289672    -0.78200
C665        C  0.42812559  0.82129936  0.85325694     0.82600
N666        N  0.41542496  0.80944089  0.84741685    -0.79900
C667        C  0.59224972  0.81433236  0.85536397     0.80100
N668        N  0.59690023  0.82593638  0.86879995    -0.78200
C669        C  0.58409664  0.83273793  0.88007182     0.82500
N670        N  0.56650857  0.82817025  0.87752612    -0.78200
C671        C  0.56167016  0.81700405  0.86378574     0.82600
N672        N  0.57462350  0.80988298  0.85293766    -0.79900
O673        O  0.27846224  0.70851359  0.76007737    -0.88500
C674        C  0.22984046  0.70468954  0.78560629     0.87600
Mg675      Mg  0.28618112  0.73171012  0.74462365     1.58100
O676        O  0.23383827  0.67868881  0.74608963    -0.88200
O677        O  0.27565445  0.67930074  0.75641938    -0.75500
C678        C  0.21569074  0.74941815  0.69156862     0.92600
O679        O  0.25443959  0.74031233  0.77757572    -0.75400
O680        O  0.22866638  0.75732537  0.69967419    -0.82900
Mg681      Mg  0.26765003  0.71374059  0.78666613     1.58000
C682        C  0.19181998  0.67908588  0.70871395     0.92500
O683        O  0.28094683  0.68890453  0.79950011    -0.81100
H684        H  0.24603808  0.65930703  0.73170765    -0.06500
C685        C  0.20877054  0.72761361  0.73975344     0.87500
O686        O  0.27796931  0.71771599  0.71809885    -0.75600
O687        O  0.24424543  0.69866661  0.77963995    -0.88400
O688        O  0.19513051  0.67575896  0.72530946    -0.81200
C689        C  0.20654039  0.65769629  0.78043053     0.92600
C690        C  0.27790730  0.67232315  0.80297460     0.92500
Mg691      Mg  0.22503238  0.70769071  0.70776093     1.58000
O692        O  0.21180304  0.73295152  0.69490899    -0.81100
O693        O  0.23815237  0.68099734  0.71686722    -0.75400
O694        O  0.22330814  0.66027014  0.78344935    -0.81200
O695        O  0.29203167  0.72995569  0.79455010    -0.82900
O696        O  0.27027879  0.76097588  0.71100069    -0.81200
C697        C  0.23942605  0.67234885  0.73165687     0.86900
O698        O  0.24893907  0.72251418  0.71470112    -0.88400
O699        O  0.21476880  0.71290738  0.73456216    -0.88500
O700        O  0.21781945  0.74209905  0.73810413    -0.75500
Mg701      Mg  0.24879553  0.67155270  0.76992482     1.58000
O702        O  0.19845385  0.66563419  0.76744585    -0.82900
H703        H  0.29766374  0.69353719  0.74830187    -0.06600
O704        O  0.25943147  0.74256464  0.74850339    -0.88200
H705        H  0.24699287  0.76202605  0.76255904    -0.06500
H706        H  0.26368535  0.70941665  0.69618929    -0.06600
C707        C  0.25357364  0.74897006  0.76278420     0.86900
C708        C  0.28459506  0.69386612  0.75486598     0.87500
C709        C  0.26345196  0.71645439  0.70900378     0.87500
H710        H  0.19572195  0.72807300  0.74634732    -0.06600
O711        O  0.21526088  0.70371551  0.77662645    -0.75700
Mg712      Mg  0.24474323  0.74960005  0.72460048     1.58000
H713        H  0.22979979  0.71157436  0.79850512    -0.06600
C714        C  0.30051082  0.74253825  0.78649210     0.92500
O715        O  0.29450114  0.75594138  0.72804410    -0.82900
C716        C  0.28674791  0.76408301  0.71502288     0.92600
O717        O  0.26521386  0.66376785  0.79503288    -0.82900
Mg718      Mg  0.20707631  0.68972929  0.75024786     1.58200
O719        O  0.29803705  0.74580423  0.76974835    -0.81200
O720        O  0.19998548  0.69166111  0.70028556    -0.82900
O721        O  0.75216081  0.70512029  0.79130604    -0.88500
C722        C  0.75723622  0.67934290  0.74279806     0.87600
Mg723      Mg  0.72824107  0.72006087  0.79796998     1.58100
O724        O  0.78268311  0.71930897  0.74700129    -0.88200
O725        O  0.78137328  0.70921087  0.78873858    -0.75500
C726        C  0.71135546  0.77033274  0.72558452     0.92600
O727        O  0.72082107  0.68579769  0.76750898    -0.75400
O728        O  0.70314270  0.76243717  0.73847672    -0.82900
Mg729      Mg  0.74760717  0.67816765  0.78109043     1.58000
C730        C  0.78305494  0.75671670  0.70527638     0.92500
O731        O  0.77258206  0.66631794  0.79475130    -0.81100
H732        H  0.80129835  0.73402646  0.75995251    -0.06500
C733        C  0.73491431  0.72361646  0.72041172     0.87500
O734        O  0.74153338  0.74677890  0.78953064    -0.75600
O735        O  0.76262057  0.68546972  0.75738572    -0.88400
O736        O  0.78654443  0.74011540  0.70840253    -0.81200
C737        C  0.80408788  0.68492093  0.72011047     0.92600
C738        C  0.78898626  0.66263592  0.79102153     0.92500
Mg739      Mg  0.75314172  0.75650442  0.73711069     1.58000
O740        O  0.72811642  0.76772940  0.72249968    -0.81100
O741        O  0.77955977  0.74843347  0.75138421    -0.75400
O742        O  0.80083423  0.68163573  0.73670964    -0.81200
O743        O  0.73166399  0.67051402  0.80612447    -0.82900
O744        O  0.69879909  0.75198522  0.77978889    -0.81200
C745        C  0.78850571  0.73383833  0.75287714     0.86900
O746        O  0.73772378  0.74910889  0.76029344    -0.88400
O747        O  0.74913149  0.72965193  0.72677048    -0.88500
O748        O  0.72011219  0.72443476  0.72905174    -0.75500
Mg749      Mg  0.78957246  0.69553481  0.76202116     1.58000
O750        O  0.79725233  0.69848061  0.71206568    -0.82900
H751        H  0.76671742  0.71747732  0.81044761    -0.06600
O752        O  0.71850202  0.71499229  0.77098254    -0.88200
H753        H  0.69904020  0.70032931  0.75929382    -0.06500
H754        H  0.74947866  0.76857319  0.77489839    -0.06600
C755        C  0.71210996  0.70046684  0.76584325     0.86900
C756        C  0.76665214  0.71070801  0.79748830     0.87500
C757        C  0.74296807  0.75548593  0.77481560     0.87500
H758        H  0.73523493  0.71684965  0.70745469    -0.06600
O759        O  0.75899385  0.68811471  0.72813148    -0.75700
Mg760      Mg  0.71125096  0.73818152  0.75532244     1.58000
H761        H  0.75045815  0.66639459  0.74258266    -0.06600
C762        C  0.71886658  0.67861243  0.81429566     0.92500
O763        O  0.70297166  0.73590760  0.80480927    -0.82900
C764        C  0.69490940  0.74839906  0.79616662     0.92600
O765        O  0.79726644  0.67058507  0.77820695    -0.82900
Mg766      Mg  0.77274112  0.71482362  0.71996977     1.58200
O767        O  0.71483917  0.69497826  0.81062230    -0.81200
O768        O  0.76999371  0.76475780  0.71304152    -0.82900
O769        O  0.75012435  0.74857093  0.27721425    -0.88500
C770        C  0.75664566  0.70014739  0.30206481     0.87600
Mg771      Mg  0.72622939  0.75555655  0.26279686     1.58100
O772        O  0.78104517  0.70558694  0.26170621    -0.88200
O773        O  0.77927090  0.74704668  0.27252149    -0.75500
C774        C  0.71008896  0.68605108  0.20853911     0.92600
O775        O  0.72002824  0.72341566  0.29573513    -0.75400
O776        O  0.70196624  0.69835896  0.21741249    -0.82900
Mg777      Mg  0.74636913  0.73781643  0.30388223     1.58000
C778        C  0.78159040  0.66443395  0.22378411     0.92500
O779        O  0.77118317  0.75264570  0.31527392    -0.81100
H780        H  0.79966807  0.71865558  0.24710868    -0.06500
C781        C  0.73306357  0.67848661  0.25648782     0.87500
O782        O  0.73973327  0.74833065  0.23577295    -0.75600
O783        O  0.76194948  0.71486253  0.29620063    -0.88400
O784        O  0.78501170  0.66729639  0.24040187    -0.81200
C785        C  0.80473267  0.67897710  0.29423605     0.92600
C786        C  0.78779345  0.74927262  0.31835197     0.92500
Mg787      Mg  0.75153808  0.69617386  0.22427418     1.58000
O788        O  0.72660815  0.68208951  0.21162565    -0.81100
O789        O  0.77790346  0.71025053  0.23267981    -0.75400
O790        O  0.80122483  0.69533268  0.29840930    -0.81200
O791        O  0.72967454  0.76165021  0.31237235    -0.82900
O792        O  0.69734415  0.73929003  0.22956486    -0.81200
C793        C  0.78686735  0.71159284  0.24724829     0.86900
O794        O  0.73605855  0.71919953  0.23224856    -0.88400
O795        O  0.74736158  0.68517679  0.25099924    -0.88500
O796        O  0.71816869  0.68697170  0.25544609    -0.75500
Mg797      Mg  0.78839067  0.72038000  0.28547357     1.58000
O798        O  0.79646043  0.67103591  0.28144348    -0.82900
H799        H  0.76382654  0.76848789  0.26512407    -0.06600
O800        O  0.71649503  0.72837729  0.26674769    -0.88200
H801        H  0.69823327  0.71486225  0.28141732    -0.06500
H802        H  0.74791884  0.73459660  0.21346153    -0.06600
C803        C  0.71093027  0.72210989  0.28122023     0.86900
C804        C  0.76429334  0.75536903  0.27155422     0.87500
C805        C  0.74131586  0.73397308  0.22649475     0.87500
H806        H  0.73333418  0.66531196  0.26281522    -0.06600
O807        O  0.75793564  0.68576076  0.29279498    -0.75700
Mg808      Mg  0.70945264  0.71389679  0.24265628     1.58000
H809        H  0.75016044  0.69962865  0.31516260    -0.06600
C810        C  0.71646586  0.76957738  0.30482235     0.92500
O811        O  0.70145356  0.76338258  0.24706135    -0.82900
C812        C  0.69387326  0.75564497  0.23372711     0.92600
O813        O  0.79615706  0.73648486  0.31040955    -0.82900
Mg814      Mg  0.77133065  0.67842685  0.26579044     1.58200
O815        O  0.71242083  0.76656957  0.28834249    -0.81200
O816        O  0.76848418  0.67225620  0.21583963    -0.82900
O817        O  0.73873465  0.21189761  0.77693653    -0.88500
C818        C  0.71427744  0.20790549  0.72830706     0.87600
Mg819      Mg  0.75343731  0.23552887  0.78455339     1.58100
O820        O  0.75445574  0.18285127  0.73284918    -0.88200
O821        O  0.74315783  0.18278008  0.77429623    -0.75500
C822        C  0.80717901  0.25453376  0.71539342     0.92600
O823        O  0.72074454  0.24311144  0.75285553    -0.75400
O824        O  0.79911440  0.26252125  0.72834343    -0.82900
Mg825      Mg  0.71210673  0.21640389  0.76626588     1.58000
C826        C  0.79243720  0.18387579  0.69200382     0.92500
O827        O  0.70024065  0.19088548  0.77963183    -0.81100
H828        H  0.76890078  0.16369144  0.74530940    -0.06500
C829        C  0.76057672  0.23169299  0.70754137     0.87500
O830        O  0.78039907  0.22200514  0.77720050    -0.75600
O831        O  0.71983845  0.20168543  0.74277982    -0.88400
O832        O  0.77577139  0.18063648  0.69477430    -0.81200
C833        C  0.72135818  0.16127338  0.70445831     0.92600
C834        C  0.69717489  0.17437562  0.77565797     0.92500
Mg835      Mg  0.79225101  0.21249865  0.72484285     1.58000
O836        O  0.80428683  0.23794120  0.71173522    -0.81100
O837        O  0.78354136  0.18565924  0.73784497    -0.75400
O838        O  0.71762428  0.16365322  0.72111121    -0.81200
O839        O  0.70349320  0.23270323  0.79077996    -0.82900
O840        O  0.78669322  0.26555115  0.76941262    -0.81200
C841        C  0.76887731  0.17674661  0.73873493     0.86900
O842        O  0.78455870  0.22723566  0.74835317    -0.88400
O843        O  0.76558610  0.21723162  0.71419061    -0.88500
O844        O  0.76159847  0.24638199  0.71631977    -0.75500
Mg845      Mg  0.73044487  0.17494883  0.74705615     1.58000
O846        O  0.73433747  0.16971039  0.69694229    -0.82900
H847        H  0.75040372  0.19726999  0.79645011    -0.06600
O848        O  0.74984646  0.24601164  0.75763342    -0.88200
H849        H  0.73537354  0.26487295  0.74476002    -0.06500
H850        H  0.80294063  0.21443026  0.76348515    -0.06600
C851        C  0.73541884  0.25197276  0.75163220     0.86900
C852        C  0.74416329  0.19740418  0.78323251     0.87500
C853        C  0.78997431  0.22117818  0.76296170     0.87500
H854        H  0.75467632  0.23174362  0.69416876    -0.06600
O855        O  0.72375486  0.20737265  0.71400759    -0.75700
Mg856      Mg  0.77398263  0.25401789  0.74368414     1.58000
H857        H  0.70128234  0.21460727  0.72798575    -0.06600
C858        C  0.71133270  0.24603339  0.79829194     0.92500
O859        O  0.76925784  0.26007440  0.79320114    -0.82900
C860        C  0.78236365  0.26837727  0.78584396     0.92600
O861        O  0.70531045  0.16647286  0.76267808    -0.82900
Mg862      Mg  0.75054854  0.19398942  0.70616475     1.58200
O863        O  0.72794052  0.24948643  0.79525063    -0.81200
O864        O  0.80068873  0.19655790  0.70017356    -0.82900
C865        C  0.15194647  0.37096672  0.85295161     0.80100
N866        N  0.15748024  0.38851208  0.85215822    -0.78200
C867        C  0.14970523  0.40112573  0.86305016     0.82500
N868        N  0.13624590  0.39614261  0.87449851    -0.78200
C869        C  0.12999787  0.37892630  0.87466929     0.82600
N870        N  0.13791950  0.36640157  0.86389664    -0.79900
C871        C  0.14073541  0.56492677  0.85640655     0.80100
N872        N  0.14406938  0.54702450  0.85362467    -0.78200
C873        C  0.13582102  0.53423838  0.86395342     0.82500
N874        N  0.12457630  0.53955196  0.87745527    -0.78200
C875        C  0.12098142  0.55729261  0.88028402     0.82600
N876        N  0.12917938  0.56991039  0.86980195    -0.79900
O877        O  0.28384210  0.20720449  0.74436778    -0.88500
C878        C  0.23443755  0.18348752  0.73831109     0.87600
Mg879      Mg  0.29094590  0.22203786  0.76818747     1.58100
O880        O  0.24052188  0.22310615  0.71268330    -0.88200
O881        O  0.28185332  0.21143638  0.71513304    -0.75500
C882        C  0.22074211  0.27610540  0.78336259     0.92600
O883        O  0.25845479  0.18951402  0.77502477    -0.75400
O884        O  0.23323379  0.26776345  0.79177177    -0.82900
Mg885      Mg  0.27243772  0.18081231  0.74871275     1.58000
C886        C  0.19999507  0.26229006  0.71168081     0.92500
O887        O  0.28648061  0.16829538  0.72412396    -0.81100
H888        H  0.25413037  0.23723394  0.69407607    -0.06500
C889        C  0.21368568  0.22911532  0.76045701     0.87500
O890        O  0.28382658  0.24889185  0.75431225    -0.75600
O891        O  0.24935771  0.18884185  0.73299754    -0.88400
O892        O  0.20250108  0.24556647  0.70818982    -0.81200
C893        C  0.21297943  0.19001529  0.69009491     0.92600
C894        C  0.28305832  0.16491695  0.70760270     0.92500
Mg895      Mg  0.23182140  0.26100827  0.74190409     1.58000
O896        O  0.21766522  0.27330183  0.76664964    -0.81100
O897        O  0.24590338  0.25206925  0.71566039    -0.75400
O898        O  0.22937748  0.18577041  0.69349218    -0.81200
O899        O  0.29665469  0.17224116  0.76538877    -0.82900
O900        O  0.27450101  0.25567375  0.79720412    -0.81200
C901        C  0.24695479  0.23737604  0.70681879     0.86900
O902        O  0.25468219  0.25279062  0.75770226    -0.88400
O903        O  0.22026499  0.23466261  0.74612015    -0.88500
O904        O  0.22229612  0.22996288  0.77529173    -0.75500
Mg905      Mg  0.25492344  0.19873293  0.70613286     1.58000
O906        O  0.20538380  0.20345114  0.69772412    -0.82900
H907        H  0.30361635  0.21888632  0.73009931    -0.06600
O908        O  0.26368023  0.21848029  0.77782903    -0.88200
H909        H  0.25032460  0.20436455  0.79662703    -0.06500
H910        H  0.27038526  0.27118706  0.74564532    -0.06600
C911        C  0.25739317  0.20421239  0.78382442     0.86900
C912        C  0.29042899  0.21257296  0.72997120     0.87500
C913        C  0.26956857  0.25828330  0.75246277     0.87500
H914        H  0.20049053  0.22281908  0.76025267    -0.06600
O915        O  0.22022124  0.19295153  0.73640348    -0.75700
Mg916      Mg  0.24913845  0.24265832  0.78444568     1.58000
H917        H  0.23354830  0.17063688  0.74521935    -0.06600
C918        C  0.30501956  0.17994605  0.77829857     0.92500
O919        O  0.29853537  0.23813779  0.79302748    -0.82900
C920        C  0.29082975  0.25137826  0.80084490     0.92600
O921        O  0.27063771  0.17328206  0.69908326    -0.82900
Mg922      Mg  0.21321988  0.21980741  0.72237499     1.58200
O923        O  0.30220182  0.19649659  0.78227076    -0.81200
O924        O  0.20799910  0.27002071  0.72480922    -0.82900
O925        O  0.29081575  0.73025848  0.25063626    -0.83700
C926        C  0.24449061  0.75925675  0.25677866     0.87600
Mg927      Mg  0.29713739  0.71604016  0.22634980     1.58100
O928        O  0.24535964  0.71773982  0.27980098    -0.88200
O929        O  0.28767303  0.72446143  0.27945657    -0.75500
C930        C  0.22259729  0.67096193  0.20595993     0.92600
O931        O  0.26864937  0.75239754  0.22055353    -0.75400
O932        O  0.23600548  0.67857456  0.19832718    -0.82900
Mg933      Mg  0.28266480  0.75797490  0.24769273     1.58000
C934        C  0.20136248  0.68388572  0.27809199     0.92500
O935        O  0.29724080  0.76727835  0.27357890    -0.81100
H936        H  0.25677134  0.70121346  0.29788919    -0.06500
C937        C  0.21959609  0.71763699  0.23123858     0.87500
O938        O  0.28672493  0.68941587  0.23837174    -0.75600
O939        O  0.25843733  0.75175803  0.26214799    -0.88400
O940        O  0.20564568  0.69996352  0.28253664    -0.81200
C941        C  0.22121685  0.75261961  0.30352414     0.92600
C942        C  0.29339128  0.76981268  0.29020155     0.92500
Mg943      Mg  0.23345266  0.68296876  0.24833804     1.58000
O944        O  0.21892587  0.67357622  0.22259790    -0.81100
O945        O  0.24769018  0.68859726  0.27529350    -0.75400
O946        O  0.23809454  0.75461446  0.30076612    -0.81200
O947        O  0.30793099  0.76473820  0.23200072    -0.82900
O948        O  0.27831180  0.68621227  0.19503595    -0.81200
C949        C  0.25001244  0.70255702  0.28499874     0.86900
O950        O  0.25752688  0.68922542  0.23364871    -0.88400
O951        O  0.22509915  0.71065886  0.24539712    -0.88500
O952        O  0.22846469  0.71652664  0.21655904    -0.75500
Mg953      Mg  0.26203428  0.73954679  0.28831407     1.58000
O954        O  0.21203340  0.74074950  0.29512656    -0.82900
H955        H  0.30895406  0.71574889  0.26445855    -0.06600
O956        O  0.27086719  0.72324426  0.21596839    -0.88200
H957        H  0.25970460  0.73989252  0.19783200    -0.06500
H958        H  0.27045086  0.66830991  0.24486899    -0.06600
C959        C  0.26633465  0.73847193  0.21078200     0.86900
C960        C  0.29647815  0.72337645  0.26476018     0.87500
C961        C  0.27143216  0.68165018  0.23897616     0.87500
H962        H  0.20718833  0.72537819  0.23149404    -0.06600
O963        O  0.22919038  0.75149974  0.25755147    -0.75700
Mg964      Mg  0.25406424  0.70137547  0.20745760     1.58000
H965        H  0.24543214  0.77253264  0.25073532    -0.06600
C966        C  0.31547051  0.75691402  0.21865316     0.92500
O967        O  0.30415545  0.70023068  0.20123641    -0.82900
C968        C  0.29526035  0.68835666  0.19256106     0.92600
O969        O  0.27980305  0.76228062  0.29750124    -0.82900
Mg970      Mg  0.21895988  0.72490176  0.26981227     1.58200
O971        O  0.31106384  0.74093151  0.21396581    -0.81200
O972        O  0.20832547  0.67602726  0.26444211    -0.82900
O973        O  0.73467890  0.18393699  0.24297505    -0.88500
C974        C  0.70898443  0.23234160  0.23703379     0.87600
Mg975      Mg  0.74997836  0.17755757  0.26672799     1.58100
O976        O  0.74859684  0.22743318  0.21114711    -0.88200
O977        O  0.73856206  0.18584405  0.21370134    -0.75500
C978        C  0.80186267  0.24954516  0.28095493     0.92600
O979        O  0.71622146  0.20872922  0.27378593    -0.75400
O980        O  0.79360082  0.23724743  0.28975418    -0.82900
Mg981      Mg  0.70785524  0.19447888  0.24753364     1.58000
C982        C  0.78563816  0.26938250  0.20905079     0.92500
O983        O  0.69567129  0.18016771  0.22299801    -0.81100
H984        H  0.76287517  0.21427522  0.19231973    -0.06500
C985        C  0.75408463  0.25487760  0.25841797     0.87500
O986        O  0.77656795  0.18539903  0.25271997    -0.75600
O987        O  0.71494842  0.21765876  0.23173068    -0.88400
O988        O  0.76907165  0.26592956  0.20577853    -0.81200
C989        C  0.71448228  0.25342928  0.18862875     0.92600
C990        C  0.69233936  0.18344800  0.20643641     0.92500
Mg991      Mg  0.78643334  0.23764522  0.23963459     1.58000
O992        O  0.79887386  0.25207322  0.26417069    -0.81100
O993        O  0.77775058  0.22305754  0.21363306    -0.75400
O994        O  0.71075570  0.23701309  0.19224707    -0.81200
O995        O  0.70013520  0.17021384  0.26444634    -0.82900
O996        O  0.78263143  0.19565193  0.29600816    -0.81200
C997        C  0.76297778  0.22149121  0.20503668     0.86900
O998        O  0.77938683  0.21467619  0.25588404    -0.88400
O999        O  0.75969920  0.24825038  0.24414400    -0.88500
O1000       O  0.75532548  0.24651247  0.27334269    -0.75500
Mg1001     Mg  0.72487798  0.21231465  0.20483429     1.58000
O1002       O  0.72760837  0.26155010  0.19618859    -0.82900
H1003       H  0.74680225  0.16440605  0.22872027    -0.06600
O1004       O  0.74542444  0.20475905  0.27615487    -0.88200
H1005       H  0.73098045  0.21734734  0.29524382    -0.06500
H1006       H  0.79839584  0.19955386  0.24399381    -0.06600
C1007       C  0.73097284  0.21037440  0.28239341     0.86900
C1008       C  0.74010042  0.17740188  0.22857369     0.87500
C1009       C  0.78544716  0.19995936  0.25078670     0.87500
H1010       H  0.74735985  0.26785797  0.25807813    -0.06600
O1011       O  0.71785861  0.24689897  0.23505768    -0.75700
Mg1012     Mg  0.76899459  0.22028883  0.28265821     1.58000
H1013       H  0.69614009  0.23271759  0.24402392    -0.06600
C1014       C  0.70833951  0.16247093  0.27741853     0.92500
O1015       O  0.76637861  0.17074286  0.29170623    -0.82900
C1016       C  0.77902555  0.17920956  0.29975683     0.92600
O1017       O  0.70025020  0.19609488  0.19792914    -0.82900
Mg1018     Mg  0.74427716  0.25457074  0.22062043     1.58200
O1019       O  0.72489933  0.16581211  0.28090898    -0.81200
O1020       O  0.79392448  0.26180799  0.22210602    -0.82900
C1021       C  0.13882491  0.12578467  0.39707500     0.80100
N1022       N  0.12683828  0.11302971  0.39161618    -0.78200
C1023       C  0.11603485  0.10443309  0.40366882     0.82500
N1024       N  0.11697529  0.10912591  0.42141342    -0.78200
C1025       C  0.12902407  0.12177900  0.42706165     0.82600
N1026       N  0.14015306  0.12980212  0.41491834    -0.79900
C1027       C  0.14231555  0.12652567  0.59139060     0.80100
N1028       N  0.14340309  0.13154616  0.57368267    -0.78200
C1029       C  0.13325449  0.12294501  0.56099198     0.82500
N1030       N  0.12172281  0.10965869  0.56600300    -0.78200
C1031       C  0.12016099  0.10484375  0.58356270     0.82600
N1032       N  0.13065512  0.11310204  0.59612049    -0.79900
O1033       O  0.21312762  0.23065673  0.24324451    -0.88500
C1034       C  0.26138344  0.25573064  0.23424090     0.87600
Mg1035     Mg  0.20731990  0.21723034  0.26808950     1.58100
O1036       O  0.25573419  0.21442586  0.21137702    -0.88200
O1037       O  0.21420166  0.22486920  0.21424682    -0.75500
C1038       C  0.28003607  0.16660783  0.28443117     0.92600
O1039       O  0.23880470  0.25105971  0.27221640    -0.75400
O1040       O  0.26751824  0.17505624  0.29269451    -0.82900
Mg1041     Mg  0.22396587  0.25753893  0.24578272     1.58000
C1042       C  0.29788849  0.17718522  0.21136605     0.92500
O1043       O  0.20896268  0.26782456  0.22125427    -0.81100
H1044       H  0.24221878  0.19863999  0.19408865    -0.06500
C1045       C  0.28434697  0.21242452  0.25849176     0.87500
O1046       O  0.21499059  0.18972012  0.25572512    -0.75600
O1047       O  0.24660866  0.24936476  0.22977137    -0.88400
O1048       O  0.29411592  0.19343411  0.20704309    -0.81200
C1049       C  0.28139137  0.24620404  0.18550571     0.92600
C1050       C  0.21120143  0.27043571  0.20443757     0.92500
Mg1051     Mg  0.26708147  0.17870975  0.24243491     1.58000
O1052       O  0.28242539  0.16846791  0.26745496    -0.81100
O1053       O  0.25185357  0.18546796  0.21615420    -0.75400
O1054       O  0.26507073  0.25060736  0.18903116    -0.81200
O1055       O  0.20013174  0.26656958  0.26240014    -0.82900
O1056       O  0.22606937  0.18574542  0.29796179    -0.81200
C1057       C  0.24978839  0.19956655  0.20655861     0.86900
O1058       O  0.24435991  0.18693193  0.25834196    -0.88400
O1059       O  0.27741533  0.20576439  0.24482895    -0.88500
O1060       O  0.27633816  0.21222717  0.27366994    -0.75500
Mg1061     Mg  0.24039926  0.23783566  0.20362694     1.58000
O1062       O  0.28941351  0.23384019  0.19433679    -0.82900
H1063       H  0.19323241  0.21760719  0.23041080    -0.06600
O1064       O  0.23468983  0.22215297  0.27649025    -0.88200
H1065       H  0.24763144  0.23763909  0.29445774    -0.06500
H1066       H  0.22888638  0.16735208  0.24795703    -0.06600
C1067       C  0.24047035  0.23689977  0.28173729     0.86900
C1068       C  0.20619895  0.22429518  0.22943498     0.87500
C1069       C  0.22949642  0.18067724  0.25394304     0.87500
H1070       H  0.29727461  0.21915724  0.25734554    -0.06600
O1071       O  0.27590595  0.24672911  0.23263453    -0.75700
Mg1072     Mg  0.25035912  0.19900662  0.28414260     1.58000
H1073       H  0.26187564  0.26906876  0.24020684    -0.06600
C1074       C  0.19217115  0.25952891  0.27589336     0.92500
O1075       O  0.20152100  0.20293192  0.29420684    -0.82900
C1076       C  0.21004595  0.19037848  0.30227237     0.92600
O1077       O  0.22356153  0.26234057  0.19555464    -0.82900
Mg1078     Mg  0.28308882  0.21928788  0.22009610     1.58200
O1079       O  0.19546676  0.24332458  0.28079872    -0.81200
O1080       O  0.29089086  0.16981700  0.22523669    -0.82900
C1081       C  0.15042052  0.13518442  0.38378076    -0.20000
C1082       C  0.14549988  0.13646181  0.36536160     0.36200
C1083       C  0.15683700  0.14549959  0.35327791    -0.26000
C1084       C  0.17295105  0.15336987  0.35918384     0.02700
C1085       C  0.17803394  0.15227747  0.37745419     0.27500
C1086       C  0.16665903  0.14321223  0.38964887    -0.25100
N1087       N  0.12883859  0.12901862  0.35886306    -0.82500
H1088       H  0.15295890  0.14653553  0.33917686     0.13300
C1089       C  0.18412301  0.16284683  0.34583078     0.02600
N1090       N  0.19466805  0.16033857  0.38346860    -0.81100
H1091       H  0.17060717  0.14225665  0.40372198     0.18100
C1092       C  0.18303867  0.18169361  0.34475117    -0.25900
C1093       C  0.19160935  0.19101207  0.33065807     0.36100
C1094       C  0.20130028  0.18114127  0.31748555    -0.19900
C1095       C  0.20297673  0.16232327  0.31905687    -0.25200
C1096       C  0.19433753  0.15303329  0.33312895     0.27500
H1097       H  0.17513656  0.18905045  0.35467686     0.13300
N1098       N  0.19059318  0.21040657  0.32968937    -0.82500
H1099       H  0.21064297  0.15485083  0.30903604     0.18100
N1100       N  0.19547159  0.13366955  0.33439550    -0.81100
H1101       H  0.18286633  0.21554608  0.34036730     0.33700
H1102       H  0.20368951  0.21546785  0.33137808     0.38200
H1103       H  0.20335799  0.12846113  0.32387105     0.33700
H1104       H  0.20221765  0.13056803  0.34642590     0.30400
H1105       H  0.19637084  0.15838074  0.39736679     0.33700
H1106       H  0.20529215  0.15350906  0.37709141     0.30400
H1107       H  0.12123492  0.13948583  0.35315718     0.38300
H1108       H  0.13186315  0.11971408  0.34864841     0.33700
C1109       C  0.13071961  0.12605735  0.44638975    -0.20000
C1110       C  0.11533406  0.12960020  0.45706906     0.36200
C1111       C  0.11736445  0.13189258  0.47580245    -0.26000
C1112       C  0.13449274  0.13085538  0.48389387     0.02700
C1113       C  0.14998176  0.12840113  0.47302759     0.27500
C1114       C  0.14794022  0.12606316  0.45431560    -0.25100
N1115       N  0.09775679  0.13073909  0.44883740    -0.82500
H1116       H  0.10550930  0.13381804  0.48421216     0.13300
C1117       C  0.13579716  0.13015977  0.50383483     0.02600
N1118       N  0.16763274  0.12783314  0.48115976    -0.81100
H1119       H  0.15974849  0.12358381  0.44597781     0.18100
C1120       C  0.14252933  0.11432435  0.51177299    -0.25900
C1121       C  0.14259395  0.11214630  0.53057024     0.36100
C1122       C  0.13600352  0.12618670  0.54162754    -0.19900
C1123       C  0.12973102  0.14226860  0.53381381    -0.25200
C1124       C  0.12940179  0.14434089  0.51489677     0.27500
H1125       H  0.14717235  0.10336668  0.50320649     0.13300
N1126       N  0.14881265  0.09552300  0.53851826    -0.82500
H1127       H  0.12436781  0.15284129  0.54243724     0.18100
N1128       N  0.12223415  0.16051600  0.50685884    -0.81100
H1129       H  0.15296923  0.08644564  0.52849694     0.33700
H1130       H  0.16025203  0.09851270  0.54626574     0.38200
H1131       H  0.11789266  0.16952141  0.51686532     0.33700
H1132       H  0.13279355  0.16688304  0.49994037     0.30400
H1133       H  0.17758891  0.12576017  0.47132435     0.33700
H1134       H  0.17010949  0.14054081  0.48683682     0.30400
H1135       H  0.09788747  0.14180580  0.44003740     0.38300
H1136       H  0.08787126  0.13346224  0.45858322     0.33700
C1137       C  0.20271847  0.17933906  0.67643322    -0.20000
C1138       C  0.18362428  0.17987345  0.67548580     0.36200
C1139       C  0.17457788  0.17058321  0.66164931    -0.26000
C1140       C  0.18411568  0.16043794  0.64876436     0.02700
C1141       C  0.20312503  0.15930823  0.64996078     0.27500
C1142       C  0.21222951  0.16882397  0.66370769    -0.25100
N1143       N  0.17327488  0.18963170  0.68865045    -0.82500
H1144       H  0.15995838  0.17141338  0.66089143     0.13300
C1145       C  0.17393816  0.15121913  0.63407166     0.02600
N1146       N  0.21307944  0.14845640  0.63725252    -0.81100
H1147       H  0.22685711  0.16818481  0.66431430     0.18100
C1148       C  0.17778146  0.15534271  0.61595495    -0.25900
C1149       C  0.16805481  0.14730485  0.60168561     0.36100
C1150       C  0.15369908  0.13521607  0.60566924    -0.19900
C1151       C  0.15007421  0.13107639  0.62392757    -0.25200
C1152       C  0.16014599  0.13872557  0.63807190     0.27500
H1153       H  0.18844873  0.16492763  0.61294683     0.13300
N1154       N  0.17287960  0.15135000  0.58329216    -0.82500
H1155       H  0.13931221  0.12174670  0.62732057     0.18100
N1156       N  0.15650406  0.13376263  0.65652104    -0.81100
H1157       H  0.18327396  0.16092211  0.58282079     0.33700
H1158       H  0.17815295  0.13952114  0.57760169     0.38200
H1159       H  0.14588914  0.12444900  0.65720297     0.33700
H1160       H  0.16798572  0.12717567  0.66150052     0.30400
H1161       H  0.22694917  0.14908800  0.63994249     0.33700
H1162       H  0.20919999  0.13499901  0.63917650     0.30400
H1163       H  0.16546851  0.19927737  0.68187373     0.38300
H1164       H  0.16447851  0.18053968  0.69497027     0.33700
C1165       C  0.20988131  0.28984707  0.79319749    -0.20000
C1166       C  0.19288473  0.29588755  0.78679414     0.36200
C1167       C  0.18337556  0.30920538  0.79639839    -0.26000
C1168       C  0.19053508  0.31668369  0.81223228     0.02700
C1169       C  0.20750513  0.31091813  0.81862266     0.27500
C1170       C  0.21694536  0.29744673  0.80914233    -0.25100
N1171       N  0.18507537  0.28841792  0.77071740    -0.82500
H1172       H  0.17029343  0.31368144  0.79152247     0.13300
C1173       C  0.18014356  0.33054409  0.82213018     0.02600
N1174       N  0.21511647  0.31892321  0.83462286    -0.81100
H1175       H  0.23005843  0.29314278  0.81406469     0.18100
C1176       C  0.17220001  0.32595782  0.83867476    -0.25900
C1177       C  0.16285050  0.33889775  0.84886053     0.36100
C1178       C  0.16141224  0.35683162  0.84240261    -0.19900
C1179       C  0.16936612  0.36135472  0.82574626    -0.25200
C1180       C  0.17870446  0.34833274  0.81550913     0.27500
H1181       H  0.17343762  0.31227816  0.84379400     0.13300
N1182       N  0.15534823  0.33385266  0.86600246    -0.82500
H1183       H  0.16826002  0.37505869  0.82068496     0.18100
N1184       N  0.18686428  0.35307947  0.79851416    -0.81100
H1185       H  0.14614516  0.32333578  0.86386615     0.33700
H1186       H  0.16581826  0.32893946  0.87413549     0.38200
H1187       H  0.18448402  0.36668833  0.79551398     0.33700
H1188       H  0.20086364  0.35163356  0.79992074     0.30400
H1189       H  0.22770662  0.31317949  0.83754197     0.33700
H1190       H  0.21746822  0.33258920  0.83186024     0.30400
H1191       H  0.18284115  0.29897751  0.76158417     0.38300
H1192       H  0.17253143  0.28282485  0.77408755     0.33700
C1193       C  0.13976135  0.51471163  0.86128471    -0.20000
C1194       C  0.12757448  0.50121953  0.86728788     0.36200
C1195       C  0.13275941  0.48301883  0.86653405    -0.26000
C1196       C  0.14965308  0.47786283  0.85966225     0.02700
C1197       C  0.16136980  0.49107193  0.85256912     0.27500
C1198       C  0.15629147  0.50941266  0.85341459    -0.25100
N1199       N  0.10996860  0.50596529  0.87410046    -0.82500
H1200       H  0.12359384  0.47269598  0.87147206     0.13300
C1201       C  0.15457188  0.45847480  0.86052977     0.02600
N1202       N  0.17849477  0.48586027  0.84498123    -0.81100
H1203       H  0.16558822  0.51962091  0.84852522     0.18100
C1204       C  0.15626060  0.44837216  0.84455749    -0.25900
C1205       C  0.15636336  0.42936931  0.84511601     0.36100
C1206       C  0.15455337  0.42045519  0.86187253    -0.19900
C1207       C  0.15467405  0.43063726  0.87787806    -0.25200
C1208       C  0.15488035  0.44957377  0.87737466     0.27500
H1209       H  0.15624852  0.45519018  0.83158869     0.13300
N1210       N  0.15698396  0.41925665  0.82861263    -0.82500
H1211       H  0.15374358  0.42378743  0.89080235     0.18100
N1212       N  0.15448330  0.45988448  0.89385847    -0.81100
H1213       H  0.14606503  0.42325312  0.82057150     0.33700
H1214       H  0.16890826  0.42268605  0.82182282     0.38200
H1215       H  0.15459221  0.45130819  0.90509682     0.33700
H1216       H  0.16642323  0.46743788  0.89441695     0.30400
H1217       H  0.18548889  0.49721281  0.84028403     0.33700
H1218       H  0.18628601  0.48031684  0.85539281     0.30400
H1219       H  0.10266164  0.51163602  0.86340933     0.38300
H1220       H  0.10285641  0.49444096  0.87816932     0.33700
C1221       C  0.19638999  0.64463703  0.79199873    -0.20000
C1222       C  0.20390007  0.63741005  0.80812404     0.36200
C1223       C  0.19428703  0.62425707  0.81786778    -0.26000
C1224       C  0.17729439  0.61827201  0.81212941     0.02700
C1225       C  0.16956901  0.62555429  0.79632815     0.27500
C1226       C  0.17915611  0.63868788  0.78644459    -0.25100
N1227       N  0.22121002  0.64339865  0.81466477    -0.82500
H1228       H  0.20000444  0.61870351  0.83016553     0.13300
C1229       C  0.16777767  0.60441430  0.82300187     0.02600
N1230       N  0.15215321  0.61938145  0.79027456    -0.81100
H1231       H  0.17325477  0.64400891  0.77414213     0.18100
C1232       C  0.15188920  0.60912058  0.83215208    -0.25900
C1233       C  0.14293347  0.59659654  0.84321555     0.36100
C1234       C  0.14983124  0.57882420  0.84504383    -0.19900
C1235       C  0.16579757  0.57419420  0.83577112    -0.25200
C1236       C  0.17486773  0.58682638  0.82484799     0.27500
H1237       H  0.14652259  0.62270409  0.83087825     0.13300
N1238       N  0.12676457  0.60204766  0.85237732    -0.82500
H1239       H  0.17136471  0.56071449  0.83715796     0.18100
N1240       N  0.19127827  0.58191250  0.81563314    -0.81100
H1241       H  0.11740073  0.60633756  0.84269640     0.33700
H1242       H  0.12987948  0.61307638  0.86066162     0.38200
H1243       H  0.19480760  0.56853206  0.81853125     0.33700
H1244       H  0.18872708  0.58251283  0.80174159     0.30400
H1245       H  0.14835303  0.62608250  0.77842108     0.33700
H1246       H  0.15338546  0.60568989  0.78695996     0.30400
H1247       H  0.21981653  0.65691762  0.81856850     0.38300
H1248       H  0.22496861  0.63625912  0.82627479     0.33700
C1249       C  0.60633886  0.80534019  0.84453794    -0.20000
C1250       C  0.62221796  0.81450406  0.83919656     0.36200
C1251       C  0.63586766  0.80489285  0.83018017    -0.26000
C1252       C  0.63390927  0.78641583  0.82657343     0.02700
C1253       C  0.61787480  0.77737931  0.83133905     0.27500
C1254       C  0.60413475  0.78699177  0.84018041    -0.25100
N1255       N  0.62444232  0.83344066  0.84299850    -0.82500
H1256       H  0.64826627  0.81168863  0.82630575     0.13300
C1257       C  0.64923194  0.77652790  0.81864948     0.02600
N1258       N  0.61583327  0.75842971  0.82751655    -0.81100
H1259       H  0.59192999  0.77997421  0.84425489     0.18100
C1260       C  0.65958158  0.76527365  0.82978761    -0.25900
C1261       C  0.67490390  0.75628468  0.82307149     0.36100
C1262       C  0.67979370  0.75854614  0.80467967    -0.19900
C1263       C  0.66919033  0.76991124  0.79361989    -0.25200
C1264       C  0.65391274  0.77881853  0.80040858     0.27500
H1265       H  0.65579624  0.76373767  0.84386696     0.13300
N1266       N  0.68539378  0.74496039  0.83488859    -0.82500
H1267       H  0.67256811  0.77164455  0.77947148     0.18100
N1268       N  0.64303956  0.79007930  0.78887009    -0.81100
H1269       H  0.67951556  0.74432227  0.84773869     0.33700
H1270       H  0.69800886  0.75112196  0.83656449     0.38200
H1271       H  0.64837758  0.79040573  0.77577549     0.33700
H1272       H  0.63026131  0.78410199  0.78787443     0.30400
H1273       H  0.60330051  0.75376571  0.83212566     0.33700
H1274       H  0.61581652  0.75688148  0.81346305     0.30400
H1275       H  0.61455740  0.84045067  0.83571589     0.38300
H1276       H  0.63696489  0.83802752  0.83828271     0.33700
C1277       C  0.31411934  0.75308491  0.79684596    -0.20000
C1278       C  0.32167989  0.76937683  0.79019700     0.36200
C1279       C  0.33554055  0.77787520  0.79999660    -0.26000
C1280       C  0.34182912  0.77064295  0.81633631     0.02700
C1281       C  0.33403124  0.75475579  0.82327984     0.27500
C1282       C  0.32023641  0.74617115  0.81350794    -0.25100
N1283       N  0.31530206  0.77730015  0.77362684    -0.82500
H1284       H  0.34146351  0.79028701  0.79493125     0.13300
C1285       C  0.35666554  0.77993349  0.82595132     0.02600
N1286       N  0.34039113  0.74724542  0.84004787    -0.81100
H1287       H  0.31458867  0.73372234  0.81876700     0.18100
C1288       C  0.35343059  0.78736568  0.84308192    -0.25900
C1289       C  0.36685107  0.79737511  0.85203262     0.36100
C1290       C  0.38375860  0.80010043  0.84349717    -0.19900
C1291       C  0.38718659  0.79190491  0.82670890    -0.25200
C1292       C  0.37378654  0.78187617  0.81783040     0.27500
H1293       H  0.34027040  0.78562084  0.84930671     0.13300
N1294       N  0.36334942  0.80477765  0.86967482    -0.82500
H1295       H  0.40017060  0.79381250  0.82017997     0.18100
N1296       N  0.37735948  0.77387071  0.80046990    -0.81100
H1297       H  0.35022262  0.80164004  0.87391082     0.33700
H1298       H  0.37214650  0.79845994  0.87876217     0.38200
H1299       H  0.39057019  0.77670608  0.79628388     0.33700
H1300       H  0.37652310  0.75984030  0.80198171     0.30400
H1301       H  0.33316669  0.73554284  0.84332768     0.33700
H1302       H  0.35384224  0.74330067  0.83814479     0.30400
H1303       H  0.30191589  0.78136150  0.77574015     0.38300
H1304       H  0.32259907  0.78900745  0.77052509     0.33700
C1305       C  0.44764029  0.81800535  0.85029475    -0.20000
C1306       C  0.45522417  0.80040916  0.85034950     0.36200
C1307       C  0.47413403  0.79846035  0.85097078    -0.26000
C1308       C  0.48539439  0.81365341  0.85108394     0.02700
C1309       C  0.47794299  0.83109222  0.84971866     0.27500
C1310       C  0.45913034  0.83309270  0.84930662    -0.25100
N1311       N  0.44383832  0.78466330  0.85076227    -0.82500
H1312       H  0.48012313  0.78511426  0.85188816     0.13300
C1313       C  0.50490099  0.81148995  0.85424570     0.02600
N1314       N  0.48954091  0.84670341  0.84927963    -0.81100
H1315       H  0.45339261  0.84657296  0.84885652     0.18100
C1316       C  0.51677041  0.81185880  0.83952044    -0.25900
C1317       C  0.53552823  0.81301104  0.84222824     0.36100
C1318       C  0.54235829  0.81371497  0.86008599    -0.19900
C1319       C  0.53040038  0.81246252  0.87477148    -0.25200
C1320       C  0.51168805  0.81136085  0.87202083     0.27500
H1321       H  0.51130959  0.81208879  0.82592464     0.13300
N1322       N  0.54750161  0.81435547  0.82695559    -0.82500
H1323       H  0.53566180  0.81279168  0.88844531     0.18100
N1324       N  0.49949589  0.81056195  0.88716658    -0.81100
H1325       H  0.54027054  0.81338399  0.81484624     0.33700
H1326       H  0.55326161  0.82726463  0.82716754     0.38200
H1327       H  0.50670227  0.81033027  0.89932652     0.33700
H1328       H  0.49188166  0.82247640  0.88724807     0.30400
H1329       H  0.48190227  0.85853587  0.84799809     0.33700
H1330       H  0.49615022  0.84753787  0.86174533     0.30400
H1331       H  0.43747112  0.78374220  0.83817642     0.38300
H1332       H  0.45162854  0.77292937  0.85205096     0.33700
C1333       C  0.84870173  0.80719128  0.62328861    -0.20000
C1334       C  0.85555687  0.80442868  0.64097305     0.36200
C1335       C  0.84440086  0.79676819  0.65425219    -0.26000
C1336       C  0.82683939  0.79107815  0.65015314     0.02700
C1337       C  0.82027817  0.79279218  0.63234368     0.27500
C1338       C  0.83121926  0.80099793  0.61908982    -0.25100
N1339       N  0.87391636  0.80912602  0.64535905    -0.82500
H1340       H  0.84947991  0.79502332  0.66788823     0.13300
C1341       C  0.81582663  0.78261175  0.66457452     0.02600
N1342       N  0.80259258  0.78610871  0.62782242    -0.81100
H1343       H  0.82596006  0.80281134  0.60554244     0.18100
C1344       C  0.79983014  0.79098771  0.67036632    -0.25900
C1345       C  0.78892770  0.78309804  0.68383168     0.36100
C1346       C  0.79435916  0.76650596  0.69180448    -0.19900
C1347       C  0.81068851  0.75849287  0.68618317    -0.25200
C1348       C  0.82137692  0.76629192  0.67261524     0.27500
H1349       H  0.79576329  0.80363743  0.66418500     0.13300
N1350       N  0.77230968  0.79175250  0.68909778    -0.82500
H1351       H  0.81508252  0.74588746  0.69221117     0.18100
N1352       N  0.83775752  0.75757612  0.66675528    -0.81100
H1353       H  0.77078678  0.80413441  0.68244436     0.33700
H1354       H  0.76166217  0.78355926  0.68469470     0.38200
H1355       H  0.84000046  0.74569910  0.67408622     0.33700
H1356       H  0.83596959  0.75372211  0.65326973     0.30400
H1357       H  0.79980883  0.78834138  0.61414457     0.33700
H1358       H  0.80273422  0.77208873  0.62966298     0.30400
H1359       H  0.87672610  0.80632025  0.65892731     0.38300
H1360       H  0.88238565  0.80077999  0.63768848     0.33700
C1361       C  0.84434349  0.81077835  0.39901222    -0.20000
C1362       C  0.84975937  0.81072810  0.38058065     0.36200
C1363       C  0.83929003  0.80166679  0.36766171    -0.26000
C1364       C  0.82363270  0.79236812  0.37263932     0.02700
C1365       C  0.81803297  0.79230517  0.39083182     0.27500
C1366       C  0.82842504  0.80150447  0.40385002    -0.25100
N1367       N  0.86607268  0.81945926  0.37482217    -0.82500
H1368       H  0.84367703  0.80151054  0.35366899     0.13300
C1369       C  0.81406795  0.78160833  0.35880613     0.02600
N1370       N  0.80190933  0.78275154  0.39598858    -0.81100
H1371       H  0.82399650  0.80143067  0.41781102     0.18100
C1372       C  0.81730046  0.76297475  0.35801133    -0.25900
C1373       C  0.80906692  0.75218928  0.34473998     0.36100
C1374       C  0.79733594  0.76028572  0.33202991    -0.19900
C1375       C  0.79403181  0.77898760  0.33292586    -0.25200
C1376       C  0.80244662  0.78978386  0.34613194     0.27500
H1377       H  0.82632824  0.75685808  0.36780157     0.13300
N1378       N  0.81228467  0.73301489  0.34436307    -0.82500
H1379       H  0.78498687  0.78518403  0.32320224     0.18100
N1380       N  0.79937558  0.80897121  0.34668174    -0.81100
H1381       H  0.82137934  0.72927785  0.35452218     0.33700
H1382       H  0.80005185  0.72657439  0.34734193     0.38200
H1383       H  0.79061829  0.81288257  0.33629386     0.33700
H1384       H  0.79279152  0.81191787  0.35884774     0.30400
H1385       H  0.79971015  0.78387530  0.40991175     0.33700
H1386       H  0.79097264  0.78909140  0.38965186     0.30400
H1387       H  0.87441581  0.80976040  0.36878134     0.38300
H1388       H  0.86271507  0.82907504  0.36501808     0.33700
C1389       C  0.85592291  0.82667352  0.46325371    -0.20000
C1390       C  0.85452461  0.84231731  0.47409297     0.36200
C1391       C  0.85406387  0.84057710  0.49297046    -0.26000
C1392       C  0.85535269  0.82356064  0.50125076     0.02700
C1393       C  0.85573546  0.80785035  0.49041461     0.27500
C1394       C  0.85571628  0.80956478  0.47143459    -0.25100
N1395       N  0.85411057  0.85993302  0.46586169    -0.82500
H1396       H  0.85352892  0.85260072  0.50133996     0.13300
C1397       C  0.85831453  0.82275330  0.52110655     0.02600
N1398       N  0.85707632  0.79032640  0.49869917    -0.81100
H1399       H  0.85683240  0.79759663  0.46305104     0.18100
C1400       C  0.84595010  0.81383744  0.53241219    -0.25900
C1401       C  0.84812936  0.81385300  0.55138994     0.36100
C1402       C  0.86317440  0.82289170  0.55916510    -0.19900
C1403       C  0.87575091  0.83126486  0.54754849    -0.25200
C1404       C  0.87352130  0.83126166  0.52875429     0.27500
H1405       H  0.83431751  0.80725040  0.52641846     0.13300
N1406       N  0.83496699  0.80499380  0.56261711    -0.82500
H1407       H  0.88752419  0.83797116  0.55309073     0.18100
N1408       N  0.88669421  0.83990819  0.51732828    -0.81100
H1409       H  0.82528957  0.79839770  0.55469773     0.33700
H1410       H  0.82804472  0.81503284  0.56978321     0.38200
H1411       H  0.89701447  0.84572214  0.52504367     0.33700
H1412       H  0.89273674  0.82987754  0.50939382     0.30400
H1413       H  0.85726628  0.78018972  0.48884226     0.33700
H1414       H  0.86952536  0.78968164  0.50537427     0.30400
H1415       H  0.84226954  0.86078058  0.45818398     0.38300
H1416       H  0.85327863  0.87003706  0.47572129     0.33700
C1417       C  0.83889848  0.57602004  0.85074911    -0.20000
C1418       C  0.83568939  0.59278392  0.85933125     0.36200
C1419       C  0.82692073  0.60668665  0.84986269    -0.26000
C1420       C  0.82106453  0.60408598  0.83202797     0.02700
C1421       C  0.82319303  0.58704373  0.82379485     0.27500
C1422       C  0.83213363  0.57319898  0.83320338    -0.25100
N1423       N  0.84115325  0.59572909  0.87767738    -0.82500
H1424       H  0.82495148  0.61968137  0.85635538     0.13300
C1425       C  0.81306625  0.61939884  0.82192706     0.02600
N1426       N  0.81639602  0.58396261  0.80584388    -0.81100
H1427       H  0.83426112  0.56032166  0.82655075     0.18100
C1428       C  0.82177648  0.62571571  0.80631657    -0.25900
C1429       C  0.81434695  0.63979011  0.79592174     0.36100
C1430       C  0.79809761  0.64818807  0.80169451    -0.19900
C1431       C  0.78958793  0.64186193  0.81754274    -0.25200
C1432       C  0.79675365  0.62741185  0.82753029     0.27500
H1433       H  0.83427445  0.61934212  0.80204257     0.13300
N1434       N  0.82302020  0.64513086  0.77935371    -0.82500
H1435       H  0.77704475  0.64796767  0.82203916     0.18100
N1436       N  0.78735143  0.62057720  0.84312343    -0.81100
H1437       H  0.83506045  0.63795045  0.77744642     0.33700
H1438       H  0.81448113  0.64138266  0.76873010     0.38200
H1439       H  0.77548776  0.62793249  0.84542248     0.33700
H1440       H  0.78336716  0.60732225  0.84022973     0.30400
H1441       H  0.81910289  0.57071748  0.80169683     0.33700
H1442       H  0.80231732  0.58524951  0.80634267     0.30400
H1443       H  0.84993758  0.60680025  0.87794600     0.38300
H1444       H  0.82965798  0.59907211  0.88521994     0.33700
C1445       C  0.83832574  0.35360492  0.84188025    -0.20000
C1446       C  0.84727080  0.33699605  0.83866759     0.36200
C1447       C  0.83830488  0.32326747  0.82908592    -0.26000
C1448       C  0.82079182  0.32592138  0.82236559     0.02700
C1449       C  0.81218651  0.34274944  0.82475363     0.27500
C1450       C  0.82101291  0.35641105  0.83453822    -0.25100
N1451       N  0.86542759  0.33415058  0.84501736    -0.82500
H1452       H  0.84490561  0.31034580  0.82699752     0.13300
C1453       C  0.81141041  0.31080019  0.81323319     0.02600
N1454       N  0.79447432  0.34580490  0.81732583    -0.81100
H1455       H  0.81414125  0.36915678  0.83679006     0.18100
C1456       C  0.79552497  0.30388362  0.82089346    -0.25900
C1457       C  0.78606160  0.28961320  0.81269036     0.36100
C1458       C  0.79261053  0.28221425  0.79623918    -0.19900
C1459       C  0.80877424  0.28906020  0.78882521    -0.25200
C1460       C  0.81819653  0.30327938  0.79712483     0.27500
H1461       H  0.79053087  0.30965783  0.83341187     0.13300
N1462       N  0.76967184  0.28302523  0.82084755    -0.82500
H1463       H  0.81398876  0.28351095  0.77630367     0.18100
N1464       N  0.83445461  0.31033626  0.78911285    -0.81100
H1465       H  0.76616371  0.29083088  0.83211009     0.33700
H1466       H  0.77233288  0.27003842  0.82575786     0.38200
H1467       H  0.83767561  0.30326994  0.77729164     0.33700
H1468       H  0.83187210  0.32369410  0.78526729     0.30400
H1469       H  0.78999064  0.35887334  0.82034267     0.33700
H1470       H  0.79557142  0.34505014  0.80324755     0.30400
H1471       H  0.87380435  0.34326657  0.83818447     0.38300
H1472       H  0.86995781  0.32119628  0.84159904     0.33700
C1473       C  0.84499409  0.41789351  0.85876345    -0.20000
C1474       C  0.84258978  0.42987939  0.87343398     0.36200
C1475       C  0.84357996  0.44853579  0.87045089    -0.26000
C1476       C  0.84672580  0.45543609  0.85312215     0.02700
C1477       C  0.84786929  0.44361521  0.83823384     0.27500
C1478       C  0.84690861  0.42483270  0.84118694    -0.25100
N1479       N  0.83954916  0.42301487  0.89137084    -0.82500
H1480       H  0.84244517  0.45777789  0.88177713     0.13300
C1481       C  0.84964751  0.47508652  0.85131727     0.02600
N1482       N  0.85048954  0.45073128  0.82034909    -0.81100
H1483       H  0.84866224  0.41561790  0.82992698     0.18100
C1484       C  0.86734097  0.48162108  0.84930306    -0.25900
C1485       C  0.87111758  0.50016270  0.85119310     0.36100
C1486       C  0.85685923  0.51224796  0.85508767    -0.19900
C1487       C  0.83902822  0.50576158  0.85593932    -0.25200
C1488       C  0.83531185  0.48723876  0.85426587     0.27500
H1489       H  0.87829505  0.47213062  0.84707592     0.13300
N1490       N  0.88933474  0.50672940  0.84945001    -0.82500
H1491       H  0.82806322  0.51505300  0.85883270     0.18100
N1492       N  0.81716634  0.48056000  0.85629616    -0.81100
H1493       H  0.89821241  0.49607586  0.84665785     0.33700
H1494       H  0.88970805  0.51533175  0.83823656     0.38200
H1495       H  0.80817426  0.49121981  0.85865490     0.33700
H1496       H  0.81338927  0.47470070  0.84399740     0.30400
H1497       H  0.85113861  0.44022523  0.81090449     0.33700
H1498       H  0.83904637  0.45838404  0.81710748     0.30400
H1499       H  0.82716232  0.41619929  0.89129031     0.38300
H1500       H  0.83829166  0.43360763  0.90065563     0.33700
C1501       C  0.16072299  0.81200621  0.60942260    -0.20000
C1502       C  0.15726274  0.81474675  0.62816021     0.36200
C1503       C  0.16632890  0.80413888  0.64105020    -0.26000
C1504       C  0.17842357  0.79055119  0.63587460     0.02700
C1505       C  0.18159597  0.78736142  0.61737179     0.27500
C1506       C  0.17276813  0.79810375  0.60435721    -0.25100
N1507       N  0.14453315  0.82814879  0.63421681    -0.82500
H1508       H  0.16381533  0.80634011  0.65532495     0.13300
C1509       C  0.18786658  0.78002466  0.65012631     0.02600
N1510       N  0.19396120  0.77338218  0.61190001    -0.81100
H1511       H  0.17551895  0.79566924  0.59017950     0.18100
C1512       C  0.18432193  0.76152046  0.65205614    -0.25900
C1513       C  0.19271941  0.75123009  0.66571401     0.36100
C1514       C  0.20523599  0.75966638  0.67760455    -0.19900
C1515       C  0.20857633  0.77831275  0.67557531    -0.25200
C1516       C  0.20006599  0.78852002  0.66200658     0.27500
H1517       H  0.17477531  0.75513552  0.64295678     0.13300
N1518       N  0.18869806  0.73227185  0.66726317    -0.82500
H1519       H  0.21804679  0.78501934  0.68450681     0.18100
N1520       N  0.20390254  0.80748475  0.66009065    -0.81100
H1521       H  0.18016502  0.72808770  0.65679589     0.33700
H1522       H  0.18138680  0.73046352  0.67923407     0.38200
H1523       H  0.21312021  0.81173113  0.66993053     0.33700
H1524       H  0.21022222  0.80932405  0.64757184     0.30400
H1525       H  0.19476706  0.77268535  0.59780157     0.33700
H1526       H  0.20683139  0.77699095  0.61651134     0.30400
H1527       H  0.13163581  0.82373992  0.63045155     0.38300
H1528       H  0.14441873  0.82904029  0.64832776     0.33700
C1529       C  0.21240314  0.76415701  0.31735373    -0.20000
C1530       C  0.19375362  0.76836618  0.31669068     0.36200
C1531       C  0.18608463  0.77892262  0.33050544    -0.26000
C1532       C  0.19663896  0.78534296  0.34486129     0.02700
C1533       C  0.21522659  0.78139535  0.34548901     0.27500
C1534       C  0.22295693  0.77090007  0.33168715    -0.25100
N1535       N  0.18270403  0.76206769  0.30199216    -0.82500
H1536       H  0.17176259  0.78205371  0.33020345     0.13300
C1537       C  0.18777347  0.79560254  0.35950196     0.02600
N1538       N  0.22608981  0.78794716  0.36021688    -0.81100
H1539       H  0.23725061  0.76770889  0.33231470     0.18100
C1540       C  0.18523936  0.78725515  0.37627970    -0.25900
C1541       C  0.17518745  0.79572611  0.38992403     0.36100
C1542       C  0.16757278  0.81299191  0.38679264    -0.19900
C1543       C  0.17085679  0.82163308  0.37015528    -0.25200
C1544       C  0.18093488  0.81309582  0.35648547     0.27500
H1545       H  0.19054513  0.77378039  0.37856263     0.13300
N1546       N  0.17209927  0.78631795  0.40657030    -0.82500
H1547       H  0.16532588  0.83497586  0.36769118     0.18100
N1548       N  0.18404000  0.82193627  0.33945455    -0.81100
H1549       H  0.18465801  0.78339075  0.41236990     0.33700
H1550       H  0.16566555  0.77408133  0.40361630     0.38200
H1551       H  0.17804672  0.83474379  0.33935921     0.33700
H1552       H  0.19797992  0.82397572  0.33818073     0.30400
H1553       H  0.23951562  0.78373831  0.35873999     0.33700
H1554       H  0.22617280  0.80206711  0.35951688     0.30400
H1555       H  0.18732093  0.76835682  0.29019979     0.38300
H1556       H  0.16926943  0.76614403  0.30374118     0.33700
C1557       C  0.14930327  0.82633619  0.54447460    -0.20000
C1558       C  0.15364645  0.80904105  0.53742475     0.36200
C1559       C  0.15405353  0.80645041  0.51850991    -0.26000
C1560       C  0.14997379  0.82068426  0.50667118     0.02700
C1561       C  0.14640541  0.83801992  0.51363655     0.27500
C1562       C  0.14613022  0.84066109  0.53236903    -0.25100
N1563       N  0.15696620  0.79406189  0.54934501    -0.82500
H1564       H  0.15683387  0.79316424  0.51298641     0.13300
C1565       C  0.14817657  0.81746789  0.48700185     0.02600
N1566       N  0.14269547  0.85281756  0.50156437    -0.81100
H1567       H  0.14313781  0.85404400  0.53752834     0.18100
C1568       C  0.13099809  0.81923230  0.47922419    -0.25900
C1569       C  0.12880561  0.81991753  0.46040974     0.36100
C1570       C  0.14423043  0.81912922  0.44911726    -0.19900
C1571       C  0.16126671  0.81575046  0.45692085    -0.25200
C1572       C  0.16339777  0.81499369  0.47582200     0.27500
H1573       H  0.11931602  0.82078307  0.48795628     0.13300
N1574       N  0.11100806  0.82171045  0.45278627    -0.82500
H1575       H  0.17310857  0.81472841  0.44834367     0.18100
N1576       N  0.18098728  0.81246265  0.48369592    -0.81100
H1577       H  0.10120162  0.82228105  0.46296618     0.33700
H1578       H  0.10839737  0.80999738  0.44530951     0.38200
H1579       H  0.19074065  0.81072290  0.47359581     0.33700
H1580       H  0.18436286  0.82433584  0.49058459     0.30400
H1581       H  0.14007518  0.86467129  0.50881798     0.33700
H1582       H  0.15440346  0.85519246  0.49399027     0.30400
H1583       H  0.14485197  0.79120200  0.55606232     0.38300
H1584       H  0.16028957  0.78246750  0.54195689     0.33700
C1585       C  0.84363188  0.12589787  0.60553019    -0.20000
C1586       C  0.83491353  0.14258261  0.60222971     0.36200
C1587       C  0.82690961  0.15200057  0.61662373    -0.26000
C1588       C  0.82735637  0.14498858  0.63420944     0.02700
C1589       C  0.83576009  0.12827355  0.63757091     0.27500
C1590       C  0.84378607  0.11889770  0.62322314    -0.25100
N1591       N  0.83438676  0.15020269  0.58444328    -0.82500
H1592       H  0.82028662  0.16482800  0.61407207     0.13300
C1593       C  0.81873921  0.15505217  0.64908189     0.02600
N1594       N  0.83616298  0.12096439  0.65558996    -0.81100
H1595       H  0.85021458  0.10602190  0.62595688     0.18100
C1596       C  0.80375403  0.14740983  0.65772619    -0.25900
C1597       C  0.79542864  0.15613546  0.67232907     0.36100
C1598       C  0.80205419  0.17314379  0.67811691    -0.19900
C1599       C  0.81733009  0.18060300  0.66957129    -0.25200
C1600       C  0.82579204  0.17165442  0.65512023     0.27500
H1601       H  0.79862734  0.13448699  0.65308587     0.13300
N1602       N  0.78035399  0.14772017  0.68130211    -0.82500
H1603       H  0.82247540  0.19361404  0.67391370     0.18100
N1604       N  0.84148031  0.17930254  0.64653917    -0.81100
H1605       H  0.77705432  0.13542818  0.67514294     0.33700
H1606       H  0.78442985  0.14465473  0.69448777     0.38200
H1607       H  0.84490300  0.19163210  0.65255133     0.33700
H1608       H  0.85233416  0.17053152  0.64884640     0.30400
H1609       H  0.84273723  0.10844522  0.65575588     0.33700
H1610       H  0.84388574  0.12969897  0.66358356     0.30400
H1611       H  0.82083242  0.15199233  0.58082276     0.38300
H1612       H  0.84051527  0.16293219  0.58489568     0.33700
C1613       C  0.78943747  0.16977379  0.31423736    -0.20000
C1614       C  0.80509510  0.17740714  0.32219173     0.36200
C1615       C  0.81438499  0.16794178  0.33575641    -0.26000
C1616       C  0.80829542  0.15107170  0.34183521     0.02700
C1617       C  0.79248220  0.14354534  0.33437040     0.27500
C1618       C  0.78325186  0.15292107  0.32063776    -0.25100
N1619       N  0.81173736  0.19471358  0.31657156    -0.82500
H1620       H  0.82647339  0.17381645  0.34160615     0.13300
C1621       C  0.81893005  0.14124355  0.35568077     0.02600
N1622       N  0.78596048  0.12635097  0.34067579    -0.81100
H1623       H  0.77112339  0.14699189  0.31495967     0.18100
C1624       C  0.81148763  0.13801795  0.37282662    -0.25900
C1625       C  0.82141080  0.12882064  0.38617395     0.36100
C1626       C  0.83910148  0.12265463  0.38231644    -0.19900
C1627       C  0.84634864  0.12573007  0.36500574    -0.25200
C1628       C  0.83646969  0.13500920  0.35177002     0.27500
H1629       H  0.79793803  0.14272307  0.37587747     0.13300
N1630       N  0.81331175  0.12548963  0.40345423    -0.82500
H1631       H  0.85988987  0.12115564  0.36174080     0.18100
N1632       N  0.84420996  0.13792912  0.33425215    -0.81100
H1633       H  0.80141931  0.11812232  0.40140975     0.33700
H1634       H  0.80980641  0.13794666  0.40915827     0.38200
H1635       H  0.85622759  0.14519014  0.33591195     0.33700
H1636       H  0.84745215  0.12532888  0.32871181     0.30400
H1637       H  0.77406344  0.12276138  0.33393445     0.33700
H1638       H  0.79563599  0.11659814  0.33730519     0.30400
H1639       H  0.81197123  0.20322989  0.32786136     0.38300
H1640       H  0.82503080  0.19309293  0.31201658     0.33700
C1641       C  0.85746665  0.11297917  0.44595676    -0.20000
C1642       C  0.87219310  0.11120912  0.45803781     0.36200
C1643       C  0.86905016  0.11168601  0.47667979    -0.26000
C1644       C  0.85166840  0.11441333  0.48362663     0.02700
C1645       C  0.83718689  0.11788491  0.47177513     0.27500
C1646       C  0.84021086  0.11708654  0.45295774    -0.25100
N1647       N  0.89031730  0.10891978  0.45138853    -0.82500
H1648       H  0.88020972  0.10957327  0.48595126     0.13300
C1649       C  0.84919223  0.11223055  0.50333317     0.02600
N1650       N  0.81949649  0.12173748  0.47886369    -0.81100
H1651       H  0.82892674  0.11891311  0.44379916     0.18100
C1652       C  0.84610732  0.12736492  0.51431919    -0.25900
C1653       C  0.84777718  0.12608737  0.53321961     0.36100
C1654       C  0.85270401  0.10942383  0.54116076    -0.19900
C1655       C  0.85451444  0.09409174  0.53011675    -0.25200
C1656       C  0.85266377  0.09529982  0.51132603     0.27500
H1657       H  0.84340062  0.14038551  0.50816818     0.13300
N1658       N  0.84544767  0.14192317  0.54411168    -0.82500
H1659       H  0.85781923  0.08114484  0.53612955     0.18100
N1660       N  0.85499550  0.07953759  0.50017044    -0.81100
H1661       H  0.83237824  0.14686834  0.54192621     0.33700
H1662       H  0.85463022  0.15172175  0.53969067     0.38200
H1663       H  0.85772244  0.06815990  0.50810692     0.33700
H1664       H  0.84268042  0.07708505  0.49367319     0.30400
H1665       H  0.81036878  0.12411424  0.46833323     0.33700
H1666       H  0.81496638  0.11019518  0.48564917     0.30400
H1667       H  0.89381605  0.12075435  0.44449354     0.38300
H1668       H  0.89949945  0.10761071  0.46206003     0.33700
C1669       C  0.83668428  0.58044271  0.16543942    -0.20000
C1670       C  0.81963935  0.57758164  0.17363939     0.36200
C1671       C  0.81158338  0.59170368  0.18349165    -0.26000
C1672       C  0.82013528  0.60853014  0.18513748     0.02700
C1673       C  0.83719445  0.61134496  0.17723931     0.27500
C1674       C  0.84533226  0.59725378  0.16753240    -0.25100
N1675       N  0.81032502  0.56065369  0.17151953    -0.82500
H1676       H  0.79841458  0.58974749  0.18963702     0.13300
C1677       C  0.81075061  0.62333624  0.19463889     0.02600
N1678       N  0.84601916  0.62859165  0.17888407    -0.81100
H1679       H  0.85844740  0.59950634  0.16138590     0.18100
C1680       C  0.81724290  0.62918990  0.21140458    -0.25900
C1681       C  0.80842522  0.64301285  0.22100497     0.36100
C1682       C  0.79260199  0.65101064  0.21362484    -0.19900
C1683       C  0.78651404  0.64531585  0.19651240    -0.25200
C1684       C  0.79547543  0.63162004  0.18693828     0.27500
H1685       H  0.82918527  0.62283043  0.21704591     0.13300
N1686       N  0.81545425  0.64875772  0.23820420    -0.82500
H1687       H  0.77451375  0.65132789  0.19064482     0.18100
N1688       N  0.78909993  0.62597817  0.16945773    -0.81100
H1689       H  0.82674050  0.64105424  0.24185588     0.33700
H1690       H  0.82001098  0.66205542  0.23670315     0.38200
H1691       H  0.77759583  0.63331972  0.16574935     0.33700
H1692       H  0.79914246  0.62915266  0.16001452     0.30400
H1693       H  0.85857363  0.62839878  0.17236408     0.33700
H1694       H  0.83808903  0.63812698  0.17209341     0.30400
H1695       H  0.80698472  0.55930783  0.15784860     0.38300
H1696       H  0.79810476  0.56075741  0.17864958     0.33700
C1697       C  0.79494370  0.28331093  0.19775563    -0.20000
C1698       C  0.81187597  0.29085025  0.20269855     0.36200
C1699       C  0.81881225  0.30554004  0.19284736    -0.26000
C1700       C  0.80954753  0.31261371  0.17795369     0.02700
C1701       C  0.79310492  0.30482605  0.17248293     0.27500
C1702       C  0.78594632  0.29028051  0.18242687    -0.25100
N1703       N  0.82186538  0.28391624  0.21785904    -0.82500
H1704       H  0.83159540  0.31154554  0.19676827     0.13300
C1705       C  0.81748703  0.32820460  0.16829911     0.02600
N1706       N  0.78368075  0.31186100  0.15700431    -0.81100
H1707       H  0.77307713  0.28460809  0.17833121     0.18100
C1708       C  0.82688297  0.32528285  0.15214233    -0.25900
C1709       C  0.83649100  0.33937038  0.14373358     0.36100
C1710       C  0.83700138  0.35669321  0.15196394    -0.19900
C1711       C  0.82664504  0.35970683  0.16766925    -0.25200
C1712       C  0.81685172  0.34564440  0.17585739     0.27500
H1713       H  0.82702167  0.31184247  0.14629913     0.13300
N1714       N  0.84573529  0.33605285  0.12695582    -0.82500
H1715       H  0.82660603  0.37292925  0.17396790     0.18100
N1716       N  0.80660297  0.34884528  0.19207437    -0.81100
H1717       H  0.84428106  0.32255949  0.12299123     0.33700
H1718       H  0.83935794  0.34385100  0.11703829     0.38200
H1719       H  0.80762176  0.36238804  0.19600765     0.33700
H1720       H  0.79298271  0.34655570  0.18903419     0.30400
H1721       H  0.77179408  0.30456192  0.15469106     0.33700
H1722       H  0.77975703  0.32510827  0.16002252     0.30400
H1723       H  0.82640063  0.27098521  0.21436468     0.38300
H1724       H  0.83347011  0.29164940  0.22019314     0.33700
C1725       C  0.84903462  0.51666733  0.14833378    -0.20000
C1726       C  0.84865714  0.50855356  0.16565653     0.36200
C1727       C  0.84917410  0.48956935  0.16703348    -0.26000
C1728       C  0.84972230  0.47872257  0.15150733     0.02700
C1729       C  0.84957853  0.48675871  0.13427695     0.27500
C1730       C  0.84917678  0.50561957  0.13287301    -0.25100
N1731       N  0.84859475  0.51949020  0.18172408    -0.82500
H1732       H  0.84933288  0.48317980  0.18021784     0.13300
C1733       C  0.85118426  0.45891199  0.15319947     0.02600
N1734       N  0.85021624  0.47569601  0.11828496    -0.81100
H1735       H  0.84936602  0.51175865  0.11956732     0.18100
C1736       C  0.83619865  0.44818876  0.14883235    -0.25900
C1737       C  0.83775486  0.42929456  0.14765126     0.36100
C1738       C  0.85475451  0.42113112  0.15071706    -0.19900
C1739       C  0.86953313  0.43187935  0.15586764    -0.25200
C1740       C  0.86792725  0.45073915  0.15710850     0.27500
H1741       H  0.82343162  0.45467833  0.14570149     0.13300
N1742       N  0.82250220  0.41858569  0.14213138    -0.82500
H1743       H  0.88256390  0.42557327  0.15820148     0.18100
N1744       N  0.88336139  0.46168378  0.16159093    -0.81100
H1745       H  0.81143106  0.42686762  0.13915350     0.33700
H1746       H  0.81862910  0.41070457  0.15320555     0.38200
H1747       H  0.89463172  0.45354409  0.16419633     0.33700
H1748       H  0.88656759  0.46946138  0.15022703     0.30400
H1749       H  0.84986749  0.48372212  0.10665064     0.33700
H1750       H  0.86267767  0.46900224  0.11817674     0.30400
H1751       H  0.83597587  0.52582589  0.18248850     0.38300
H1752       H  0.84958039  0.51136241  0.19325095     0.33700
C1753       C  0.61767869  0.81462292  0.16911510    -0.20000
C1754       C  0.61384636  0.81098164  0.18747425     0.36200
C1755       C  0.62678001  0.80221638  0.19821695    -0.26000
C1756       C  0.64348532  0.79705762  0.19096428     0.02700
C1757       C  0.64754637  0.80078576  0.17277494     0.27500
C1758       C  0.63460857  0.80954303  0.16201448    -0.25100
N1759       N  0.59703156  0.81642108  0.19539556    -0.82500
H1760       H  0.62372290  0.79929105  0.21225260     0.13300
C1761       C  0.65623059  0.78674241  0.20222763     0.02600
N1762       N  0.66464401  0.79531718  0.16526064    -0.81100
H1763       H  0.63770899  0.81220059  0.14794456     0.18100
C1764       C  0.65544540  0.76786290  0.20175536    -0.25900
C1765       C  0.66738264  0.75734422  0.21207533     0.36100
C1766       C  0.68064852  0.76602300  0.22281935    -0.19900
C1767       C  0.68121074  0.78504236  0.22333338    -0.25200
C1768       C  0.66909572  0.79549672  0.21313593     0.27500
H1769       H  0.64533632  0.76134095  0.19338490     0.13300
N1770       N  0.66581974  0.73796526  0.21187630    -0.82500
H1771       H  0.69125261  0.79180871  0.23157650     0.18100
N1772       N  0.66969125  0.81491502  0.21389597    -0.81100
H1773       H  0.65557183  0.73385513  0.20304572     0.33700
H1774       H  0.66181035  0.73388984  0.22480963     0.38200
H1775       H  0.67980297  0.81921963  0.22279074     0.33700
H1776       H  0.67334247  0.81962754  0.20108193     0.30400
H1777       H  0.66540432  0.79880441  0.15158115     0.33700
H1778       H  0.67478213  0.80264333  0.17183812     0.30400
H1779       H  0.59065543  0.80490414  0.20055082     0.38300
H1780       H  0.59983229  0.82508594  0.20620981     0.33700
C1781       C  0.39625675  0.81683935  0.15979818    -0.20000
C1782       C  0.37793976  0.82232957  0.16049767     0.36200
C1783       C  0.36544634  0.81217446  0.17041524    -0.26000
C1784       C  0.37079829  0.79667578  0.17986139     0.02700
C1785       C  0.38902804  0.79105931  0.17923370     0.27500
C1786       C  0.40157903  0.80119516  0.16917775    -0.25100
N1787       N  0.37195686  0.83844674  0.15156201    -0.82500
H1788       H  0.35142537  0.81646282  0.17077488     0.13300
C1789       C  0.35702526  0.78645240  0.19018878     0.02600
N1790       N  0.39472233  0.77520756  0.18893623    -0.81100
H1791       H  0.41556953  0.79685025  0.16867588     0.18100
C1792       C  0.35385203  0.76829600  0.18590204    -0.25900
C1793       C  0.34065912  0.75819378  0.19510025     0.36100
C1794       C  0.32990664  0.76669294  0.20855009    -0.19900
C1795       C  0.33323281  0.78496056  0.21277098    -0.25200
C1796       C  0.34678517  0.79483628  0.20389824     0.27500
H1797       H  0.36178014  0.76196343  0.17531614     0.13300
N1798       N  0.33836404  0.73936725  0.19085159    -0.82500
H1799       H  0.32530762  0.79162573  0.22314000     0.18100
N1800       N  0.35028442  0.81332393  0.20881603    -0.81100
H1801       H  0.34685461  0.73554931  0.18019709     0.33700
H1802       H  0.34260620  0.73194019  0.20210825     0.38200
H1803       H  0.34153027  0.81750818  0.21911206     0.33700
H1804       H  0.36337208  0.81391870  0.21413649     0.30400
H1805       H  0.40853219  0.77285372  0.18697224     0.33700
H1806       H  0.39295470  0.77777695  0.20272814     0.30400
H1807       H  0.36638932  0.84709789  0.16127029     0.38300
H1808       H  0.36173709  0.83491693  0.14245362     0.33700
C1809       C  0.45925165  0.83748238  0.15187405    -0.20000
C1810       C  0.47044373  0.85290854  0.15044560     0.36200
C1811       C  0.48918354  0.85107164  0.15274064    -0.26000
C1812       C  0.49693119  0.83422975  0.15661089     0.02700
C1813       C  0.48573813  0.81909267  0.15939586     0.27500
C1814       C  0.46692462  0.82089741  0.15714952    -0.25100
N1815       N  0.46279408  0.87032093  0.14643489    -0.82500
H1816       H  0.49791921  0.86268017  0.15080097     0.13300
C1817       C  0.51676149  0.83229344  0.15495813     0.02600
N1818       N  0.49358754  0.80184377  0.16372476    -0.81100
H1819       H  0.45836882  0.80908582  0.15851890     0.18100
C1820       C  0.52757096  0.82958546  0.17029278    -0.25900
C1821       C  0.54658980  0.82891403  0.16882553     0.36100
C1822       C  0.55476672  0.83076613  0.15159004    -0.19900
C1823       C  0.54369040  0.83290448  0.13630254    -0.25200
C1824       C  0.52485277  0.83365279  0.13780148     0.27500
H1825       H  0.52117108  0.82851082  0.18343506     0.13300
N1826       N  0.55750514  0.82693685  0.18476956    -0.82500
H1827       H  0.54975656  0.83407005  0.12301358     0.18100
N1828       N  0.51381718  0.83595146  0.12195071    -0.81100
H1829       H  0.56473224  0.83896268  0.18649860     0.33700
H1830       H  0.54935345  0.82546757  0.19623615     0.38200
H1831       H  0.52185553  0.83694135  0.11035522     0.33700
H1832       H  0.50599477  0.82427071  0.12045765     0.30400
H1833       H  0.48348504  0.79209628  0.16539657     0.33700
H1834       H  0.50137111  0.79774005  0.15264753     0.30400
H1835       H  0.45442964  0.87389995  0.15726798     0.38300
H1836       H  0.47289556  0.88018500  0.14569077     0.33700
C1837       C  0.61412870  0.11975116  0.83663417    -0.20000
C1838       C  0.63251637  0.11911759  0.84220052     0.36200
C1839       C  0.64565509  0.12863639  0.83231510    -0.26000
C1840       C  0.64094253  0.13921943  0.81736908     0.02700
C1841       C  0.62264035  0.14063498  0.81226785     0.27500
C1842       C  0.60946936  0.13077063  0.82180770    -0.25100
N1843       N  0.63791551  0.10897569  0.85788461    -0.82500
H1844       H  0.65974920  0.12775245  0.83624413     0.13300
C1845       C  0.65546818  0.14825567  0.80687579     0.02600
N1846       N  0.61752987  0.15211125  0.79743276    -0.81100
H1847       H  0.59549257  0.13168110  0.81752390     0.18100
C1848       C  0.65817000  0.14335676  0.78876047    -0.25900
C1849       C  0.67196790  0.15131081  0.77836670     0.36100
C1850       C  0.68332239  0.16449400  0.78631193    -0.19900
C1851       C  0.68071035  0.16917909  0.80455215    -0.25200
C1852       C  0.66694432  0.16116866  0.81492521     0.27500
H1853       H  0.64942627  0.13326975  0.78271671     0.13300
N1854       N  0.67417020  0.14632596  0.75971137    -0.82500
H1855       H  0.68940952  0.17922237  0.81072663     0.18100
N1856       N  0.66445928  0.16619487  0.83354357    -0.81100
H1857       H  0.66493582  0.13624267  0.75611061     0.33700
H1858       H  0.67099196  0.15765544  0.75187790     0.38200
H1859       H  0.67413621  0.17573072  0.83745663     0.33700
H1860       H  0.65185399  0.17251851  0.83463251     0.30400
H1861       H  0.60354678  0.15164255  0.79536441     0.33700
H1862       H  0.62061562  0.16541908  0.80108050     0.30400
H1863       H  0.63233172  0.11539380  0.86918808     0.38300
H1864       H  0.65194704  0.10941984  0.85960404     0.33700
C1865       C  0.38978926  0.12106838  0.83282348    -0.20000
C1866       C  0.37357515  0.11250976  0.82749428     0.36200
C1867       C  0.36017356  0.12241205  0.81848616    -0.26000
C1868       C  0.36260802  0.14077182  0.81451676     0.02700
C1869       C  0.37893177  0.14935282  0.81947050     0.27500
C1870       C  0.39240903  0.13938250  0.82853435    -0.25100
N1871       N  0.37078643  0.09363699  0.83085724    -0.82500
H1872       H  0.34771395  0.11572253  0.81463275     0.13300
C1873       C  0.34786815  0.15073481  0.80518563     0.02600
N1874       N  0.38173144  0.16811605  0.81525894    -0.81100
H1875       H  0.40485172  0.14600141  0.83254307     0.18100
C1876       C  0.33953109  0.16541021  0.81385112    -0.25900
C1877       C  0.32526403  0.17485946  0.80559542     0.36100
C1878       C  0.31913681  0.16961443  0.78827069    -0.19900
C1879       C  0.32739621  0.15472265  0.77974710    -0.25200
C1880       C  0.34172902  0.14531193  0.78796724     0.27500
H1881       H  0.34401248  0.16944738  0.82720719     0.13300
N1882       N  0.31687606  0.18956172  0.81502556    -0.82500
H1883       H  0.32298799  0.15066206  0.76637909     0.18100
N1884       N  0.35024532  0.13040628  0.77881340    -0.81100
H1885       H  0.31187963  0.18464842  0.82730809     0.33700
H1886       H  0.32682172  0.19919109  0.81789019     0.38200
H1887       H  0.34412010  0.12809092  0.76628378     0.33700
H1888       H  0.36363833  0.13409051  0.77615258     0.30400
H1889       H  0.39438124  0.17240585  0.81989597     0.33700
H1890       H  0.38195546  0.16934605  0.80117638     0.30400
H1891       H  0.35904464  0.09223393  0.83861978     0.38300
H1892       H  0.36863227  0.08721474  0.81844571     0.33700
C1893       C  0.45404259  0.10669611  0.84574644    -0.20000
C1894       C  0.46188851  0.12383149  0.84240524     0.36200
C1895       C  0.48085925  0.12528968  0.84083815    -0.26000
C1896       C  0.49195323  0.11001036  0.84264880     0.02700
C1897       C  0.48411877  0.09292364  0.84550820     0.27500
C1898       C  0.46529792  0.09144013  0.84701319    -0.25100
N1899       N  0.45073385  0.13972376  0.84138794    -0.82500
H1900       H  0.48706566  0.13842412  0.83893989     0.13300
C1901       C  0.51178746  0.11198153  0.84409960     0.02600
N1902       N  0.49543997  0.07724260  0.84762790    -0.81100
H1903       H  0.45939195  0.07825987  0.84947162     0.18100
C1904       C  0.51921379  0.11320383  0.86145290    -0.25900
C1905       C  0.53788799  0.11150874  0.86419907     0.36100
C1906       C  0.54937284  0.10855214  0.84924248    -0.19900
C1907       C  0.54207988  0.10852246  0.83169843    -0.25200
C1908       C  0.52325752  0.11001915  0.82898778     0.27500
H1909       H  0.51027367  0.11471899  0.87297983     0.13300
N1910       N  0.54523311  0.11246364  0.88216680    -0.82500
H1911       H  0.55095167  0.10638100  0.82022435     0.18100
N1912       N  0.51571933  0.10912402  0.81109597    -0.81100
H1913       H  0.53496918  0.11456133  0.89167345     0.33700
H1914       H  0.55366781  0.12379334  0.88273633     0.38200
H1915       H  0.52600085  0.10773526  0.80147837     0.33700
H1916       H  0.50784124  0.09742024  0.81027840     0.30400
H1917       H  0.48760927  0.06574287  0.85013355     0.33700
H1918       H  0.50205154  0.07500887  0.83533116     0.30400
H1919       H  0.44488838  0.14168207  0.85411934     0.38300
H1920       H  0.45862581  0.15116087  0.83877958     0.33700
C1921       C  0.60628375  0.12697939  0.15303218    -0.20000
C1922       C  0.60345864  0.14419466  0.16097261     0.36200
C1923       C  0.61796307  0.15292252  0.16951267    -0.26000
C1924       C  0.63503688  0.14479239  0.17048131     0.02700
C1925       C  0.63781160  0.12753114  0.16300526     0.27500
C1926       C  0.62341058  0.11879202  0.15440057    -0.25100
N1927       N  0.58615355  0.15302324  0.16000052    -0.82500
H1928       H  0.61596934  0.16614248  0.17552663     0.13300
C1929       C  0.64994556  0.15457038  0.17935746     0.02600
N1930       N  0.65531809  0.11909125  0.16395681    -0.81100
H1931       H  0.62568898  0.10555212  0.14855220     0.18100
C1932       C  0.65820009  0.14692136  0.19457336    -0.25900
C1933       C  0.67246380  0.15575099  0.20338830     0.36100
C1934       C  0.67829198  0.17281481  0.19698252    -0.19900
C1935       C  0.66999267  0.18035146  0.18162089    -0.25200
C1936       C  0.65594755  0.17134157  0.17267782     0.27500
H1937       H  0.65347083  0.13397614  0.19955492     0.13300
N1938       N  0.68104979  0.14737876  0.21869041    -0.82500
H1939       H  0.67430381  0.19344648  0.17666504     0.18100
N1940       N  0.64775392  0.17910488  0.15684194    -0.81100
H1941       H  0.67490971  0.13501360  0.22173634     0.33700
H1942       H  0.69438560  0.14443125  0.21499991     0.38200
H1943       H  0.65364606  0.19158711  0.15378324     0.33700
H1944       H  0.65055366  0.17053514  0.14594493     0.30400
H1945       H  0.65505533  0.10631905  0.15789568     0.33700
H1946       H  0.66430094  0.12696993  0.15639574     0.30400
H1947       H  0.57742160  0.14611667  0.16871151     0.38300
H1948       H  0.58697324  0.16621162  0.16503446     0.33700
C1949       C  0.38279626  0.12661481  0.14973612    -0.20000
C1950       C  0.36588624  0.13018167  0.14157354     0.36200
C1951       C  0.35203721  0.13805894  0.15188932    -0.26000
C1952       C  0.35482631  0.14266429  0.17004456     0.02700
C1953       C  0.37180867  0.13958389  0.17810226     0.27500
C1954       C  0.38565479  0.13156515  0.16785397    -0.25100
N1955       N  0.36290298  0.12602410  0.12281326    -0.82500
H1956       H  0.33898787  0.14069956  0.14575976     0.13300
C1957       C  0.33991329  0.15119758  0.18027393     0.02600
N1958       N  0.37488555  0.14463850  0.19661985    -0.81100
H1959       H  0.39861891  0.12888190  0.17413651     0.18100
C1960       C  0.33195567  0.14191502  0.19473790    -0.25900
C1961       C  0.31768495  0.14962699  0.20470949     0.36100
C1962       C  0.31149776  0.16724173  0.20025195    -0.19900
C1963       C  0.31940968  0.17624935  0.18542860    -0.25200
C1964       C  0.33354056  0.16844456  0.17547213     0.27500
H1965       H  0.33685153  0.12852910  0.19815430     0.13300
N1966       N  0.30968585  0.13965491  0.21935907    -0.82500
H1967       H  0.31485746  0.18967298  0.18174514     0.18100
N1968       N  0.34167171  0.17806982  0.16065189    -0.81100
H1969       H  0.31633703  0.12731526  0.22123562     0.33700
H1970       H  0.29643436  0.13648543  0.21557756     0.38200
H1971       H  0.33537522  0.19059207  0.15878142     0.33700
H1972       H  0.35510551  0.18077371  0.16414551     0.30400
H1973       H  0.38807782  0.14136281  0.20052606     0.33700
H1974       H  0.37380221  0.15871166  0.19744907     0.30400
H1975       H  0.37155312  0.13422013  0.11519808     0.38300
H1976       H  0.34971682  0.12940545  0.11898157     0.33700
C1977       C  0.44744832  0.11436587  0.13907001    -0.20000
C1978       C  0.45496427  0.13188960  0.13846157     0.36200
C1979       C  0.47383861  0.13389265  0.13957083    -0.26000
C1980       C  0.48503766  0.11870440  0.14119688     0.02700
C1981       C  0.47747744  0.10130691  0.14265795     0.27500
C1982       C  0.45870961  0.09931524  0.14154755    -0.25100
N1983       N  0.44355017  0.14740426  0.13582067    -0.82500
H1984       H  0.47989280  0.14717925  0.13834953     0.13300
C1985       C  0.50468459  0.12066106  0.13916390     0.02600
N1986       N  0.48894823  0.08573195  0.14485191    -0.81100
H1987       H  0.45284174  0.08589432  0.14209160     0.18100
C1988       C  0.51555921  0.12228944  0.15456213    -0.25900
C1989       C  0.53441869  0.12082107  0.15318762     0.36100
C1990       C  0.54237356  0.11759530  0.13614231    -0.19900
C1991       C  0.53143469  0.11702394  0.12065975    -0.25200
C1992       C  0.51262833  0.11852257  0.12199389     0.27500
H1993       H  0.50934265  0.12387192  0.16774619     0.13300
N1994       N  0.54527772  0.12161162  0.16919892    -0.82500
H1995       H  0.53755061  0.11488023  0.10750788     0.18100
N1996       N  0.50150995  0.11742549  0.10606647    -0.81100
H1997       H  0.54088182  0.11147970  0.17802445     0.33700
H1998       H  0.54299793  0.13410438  0.17542073     0.38200
H1999       H  0.50953443  0.11616635  0.09448433     0.33700
H2000       H  0.49383757  0.10558886  0.10689467     0.30400
H2001       H  0.48118289  0.07397630  0.14602184     0.33700
H2002       H  0.49665185  0.08425996  0.13308803     0.30400
H2003       H  0.43772226  0.14629881  0.12298774     0.38300
H2004       H  0.45125568  0.15925733  0.13573568     0.33700
C2005       C  0.16374033  0.58407385  0.15737218    -0.20000
C2006       C  0.16795207  0.59917419  0.14645424     0.36200
C2007       C  0.17895873  0.61296194  0.15329756    -0.26000
C2008       C  0.18593551  0.61190266  0.17083564     0.02700
C2009       C  0.18295775  0.59625138  0.18129578     0.27500
C2010       C  0.17187180  0.58244784  0.17445179    -0.25100
N2011       N  0.16101331  0.60065127  0.12844715    -0.82500
H2012       H  0.18148545  0.62486971  0.14513573     0.13300
C2013       C  0.19491951  0.62787921  0.17872237     0.02600
N2014       N  0.19083352  0.59472121  0.19900024    -0.81100
H2015       H  0.16895674  0.57078219  0.18281680     0.18100
C2016       C  0.18675846  0.63640209  0.19353989    -0.25900
C2017       C  0.19498767  0.65116295  0.20202362     0.36100
C2018       C  0.21182353  0.65756733  0.19563488    -0.19900
C2019       C  0.21945259  0.64960520  0.18009387    -0.25200
C2020       C  0.21120692  0.63472993  0.17163305     0.27500
H2021       H  0.17395523  0.63142231  0.19867560     0.13300
N2022       N  0.18618460  0.65950801  0.21714576    -0.82500
H2023       H  0.23232594  0.65441232  0.17500493     0.18100
N2024       N  0.21953250  0.62624602  0.15623781    -0.81100
H2025       H  0.17342583  0.66393268  0.21294311     0.33700
H2026       H  0.18431955  0.64968740  0.22714630     0.38200
H2027       H  0.23145747  0.63297136  0.15268948     0.33700
H2028       H  0.22326223  0.61315415  0.16005641     0.30400
H2029       H  0.18722919  0.58243844  0.20499924     0.33700
H2030       H  0.20488593  0.59447485  0.19739697     0.30400
H2031       H  0.15350473  0.61260579  0.12758236     0.38300
H2032       H  0.17197079  0.60169889  0.11956335     0.33700
C2033       C  0.19986149  0.28436103  0.19557697    -0.20000
C2034       C  0.18310291  0.28990148  0.20310897     0.36200
C2035       C  0.17421794  0.30505933  0.19595110    -0.26000
C2036       C  0.18161315  0.31467312  0.18142842     0.02700
C2037       C  0.19786293  0.30878276  0.17341354     0.27500
C2038       C  0.20683149  0.29365397  0.18055134    -0.25100
N2039       N  0.17525519  0.28028114  0.21809128    -0.82500
H2040       H  0.16156130  0.30956451  0.20183684     0.13300
C2041       C  0.17202797  0.33076939  0.17451776     0.02600
N2042       N  0.20525641  0.31834169  0.15818619    -0.81100
H2043       H  0.21964986  0.28952841  0.17475223     0.18100
C2044       C  0.18007785  0.34785618  0.17613807    -0.25900
C2045       C  0.17172542  0.36327751  0.16888115     0.36100
C2046       C  0.15498348  0.36158323  0.15985291    -0.19900
C2047       C  0.14675482  0.34445989  0.15879971    -0.25200
C2048       C  0.15513219  0.32904517  0.16596645     0.27500
H2049       H  0.19305731  0.34916591  0.18282242     0.13300
N2050       N  0.18062463  0.38042394  0.17018126    -0.82500
H2051       H  0.13382045  0.34300114  0.15208745     0.18100
N2052       N  0.14674411  0.31158383  0.16429138    -0.81100
H2053       H  0.19332105  0.37928203  0.16404423     0.33700
H2054       H  0.18263071  0.38330158  0.18387780     0.38200
H2055       H  0.13428573  0.31265315  0.15769018     0.33700
H2056       H  0.15502803  0.30362579  0.15603323     0.30400
H2057       H  0.21737262  0.31237928  0.15396711     0.33700
H2058       H  0.19614125  0.31699078  0.14746549     0.30400
H2059       H  0.17201117  0.26728369  0.21357556     0.38300
H2060       H  0.16311814  0.28631159  0.22216089     0.33700
C2061       C  0.14470952  0.42708871  0.15072554    -0.20000
C2062       C  0.15200410  0.43912726  0.13790858     0.36200
C2063       C  0.15233060  0.45769334  0.14172150    -0.26000
C2064       C  0.14550431  0.46441746  0.15809755     0.02700
C2065       C  0.13899619  0.45228257  0.17130305     0.27500
C2066       C  0.13874796  0.43362623  0.16750859    -0.25100
N2067       N  0.15868818  0.43242597  0.12091648    -0.82500
H2068       H  0.15729020  0.46705458  0.13159546     0.13300
C2069       C  0.14385295  0.48426735  0.16030613     0.02600
N2070       N  0.13229372  0.45902310  0.18826220    -0.81100
H2071       H  0.13315610  0.42426545  0.17729846     0.18100
C2072       C  0.12655875  0.49192680  0.16181697    -0.25900
C2073       C  0.12407527  0.51073554  0.16084592     0.36100
C2074       C  0.13924972  0.52207101  0.15827324    -0.19900
C2075       C  0.15664531  0.51442742  0.15796622    -0.25200
C2076       C  0.15908647  0.49561856  0.15883529     0.27500
H2077       H  0.11488603  0.48313690  0.16294232     0.13300
N2078       N  0.10619919  0.51831767  0.16206528    -0.82500
H2079       H  0.16833137  0.52306022  0.15608187     0.18100
N2080       N  0.17690439  0.48792257  0.15761681    -0.81100
H2081       H  0.09654984  0.50812259  0.16375993     0.33700
H2082       H  0.10573341  0.52629943  0.17372804     0.38200
H2083       H  0.18664741  0.49808954  0.15635215     0.33700
H2084       H  0.17951632  0.48128925  0.16982152     0.30400
H2085       H  0.12787692  0.44836269  0.19642977     0.33700
H2086       H  0.14313290  0.46508879  0.19501209     0.30400
H2087       H  0.16978052  0.42409583  0.12368026     0.38300
H2088       H  0.16351618  0.44304773  0.11293321     0.33700
C2089       C  0.29157834  0.25529351  0.17064635    -0.20000
C2090       C  0.28334082  0.26712950  0.15797379     0.36200
C2091       C  0.29391345  0.27476805  0.14407099    -0.26000
C2092       C  0.31241825  0.27095131  0.14266192     0.02700
C2093       C  0.32054359  0.25889606  0.15486710     0.27500
C2094       C  0.31012236  0.25127206  0.16872221    -0.25100
N2095       N  0.26438846  0.27135811  0.15911433    -0.82500
H2096       H  0.28784482  0.28415700  0.13459900     0.13300
C2097       C  0.32370986  0.28103580  0.12964019     0.02600
N2098       N  0.33946825  0.25467063  0.15324880    -0.81100
H2099       H  0.31666687  0.24214939  0.17812311     0.18100
C2100       C  0.33431841  0.29521645  0.13620631    -0.25900
C2101       C  0.34602723  0.30475501  0.12481032     0.36100
C2102       C  0.34731806  0.30001818  0.10629040    -0.19900
C2103       C  0.33636937  0.28585825  0.09970649    -0.25200
C2104       C  0.32465209  0.27624451  0.11125191     0.27500
H2105       H  0.33357168  0.29885461  0.15039261     0.13300
N2106       N  0.35641118  0.31932672  0.13221704    -0.82500
H2107       H  0.33718547  0.28199841  0.08560087     0.18100
N2108       N  0.31389116  0.26155180  0.10447046    -0.81100
H2109       H  0.36439033  0.31419144  0.14269864     0.33700
H2110       H  0.34746201  0.32879053  0.13773770     0.38200
H2111       H  0.31609905  0.25978865  0.09061404     0.33700
H2112       H  0.31833318  0.24971185  0.11079354     0.30400
H2113       H  0.34346374  0.24568853  0.16340759     0.33700
H2114       H  0.34130502  0.24792120  0.14095652     0.30400
H2115       H  0.26251111  0.27940028  0.17059169     0.38300
H2116       H  0.26037299  0.27925736  0.14809644     0.33700
C2117       C  0.30074702  0.26184810  0.81498998    -0.20000
C2118       C  0.31775726  0.25624082  0.82195269     0.36200
C2119       C  0.32571872  0.26597628  0.83622868    -0.26000
C2120       C  0.31735242  0.28133526  0.84349619     0.02700
C2121       C  0.30062441  0.28713667  0.83649128     0.27500
C2122       C  0.29251248  0.27737390  0.82236454    -0.25100
N2123       N  0.32689503  0.24066073  0.81472689    -0.82500
H2124       H  0.33871037  0.26175881  0.84154737     0.13300
C2125       C  0.32660087  0.29169468  0.85796555     0.02600
N2126       N  0.29188307  0.30286472  0.84388594    -0.81100
H2127       H  0.27956315  0.28189754  0.81722003     0.18100
C2128       C  0.33197768  0.30948282  0.85441821    -0.25900
C2129       C  0.34071321  0.31992833  0.86763252     0.36100
C2130       C  0.34450727  0.31225383  0.88478918    -0.19900
C2131       C  0.33893208  0.29442365  0.88834816    -0.25200
C2132       C  0.32998986  0.28407759  0.87510511     0.27500
H2133       H  0.32926844  0.31525709  0.84122418     0.13300
N2134       N  0.34550430  0.33835867  0.86369040    -0.82500
H2135       H  0.34177415  0.28843436  0.90140979     0.18100
N2136       N  0.32430107  0.26590076  0.87896973    -0.81100
H2137       H  0.34202529  0.34174400  0.85041300     0.33700
H2138       H  0.33775820  0.34666658  0.87212438     0.38200
H2139       H  0.32787383  0.26228157  0.89216020     0.33700
H2140       H  0.31017173  0.26563375  0.87839385     0.30400
H2141       H  0.27969031  0.30541832  0.83719722     0.33700
H2142       H  0.28859443  0.30001362  0.85733986     0.30400
H2143       H  0.33122114  0.24396935  0.80167669     0.38300
H2144       H  0.33860267  0.23781474  0.82212687     0.33700
C2145       C  0.36063483  0.32436941  0.94902346    -0.20000
C2146       C  0.35771797  0.30687982  0.95618831     0.36200
C2147       C  0.35783769  0.30438704  0.97510085    -0.26000
C2148       C  0.36105547  0.31895444  0.98681174     0.02700
C2149       C  0.36351313  0.33641736  0.97972230     0.27500
C2150       C  0.36325229  0.33895149  0.96095194    -0.25100
N2151       N  0.35538012  0.29165807  0.94433292    -0.82500
H2152       H  0.35606586  0.29097636  0.98072473     0.13300
C2153       C  0.36311053  0.31584345  0.00645599     0.02600
N2154       N  0.36668574  0.35143357  0.99166945    -0.81100
H2155       H  0.36536716  0.35242116  0.95558940     0.18100
C2156       C  0.38055878  0.31578467  0.01379127    -0.25900
C2157       C  0.38326565  0.31492064  0.03255358     0.36100
C2158       C  0.36813142  0.31430427  0.04425272    -0.19900
C2159       C  0.35064987  0.31356868  0.03679145    -0.25200
C2160       C  0.34799259  0.31452139  0.01796089     0.27500
H2161       H  0.39210295  0.31676503  0.00479968     0.13300
N2162       N  0.40132555  0.31471783  0.03974501    -0.82500
H2163       H  0.33900996  0.31307068  0.04568670     0.18100
N2164       N  0.33004972  0.31464895  0.01049003    -0.81100
H2165       H  0.41089301  0.31541612  0.02934886     0.33700
H2166       H  0.40322712  0.30226923  0.04616730     0.38200
H2167       H  0.32039679  0.31354790  0.02077057     0.33700
H2168       H  0.32802199  0.32724697  0.00440272     0.30400
H2169       H  0.36849806  0.36336560  0.98430698     0.33700
H2170       H  0.35502885  0.35323606  0.99947901     0.30400
H2171       H  0.36749014  0.28985318  0.93724177     0.38300
H2172       H  0.35329995  0.27983265  0.95179494     0.33700
C2173       C  0.17808253  0.27033039  0.28543055    -0.20000
C2174       C  0.17247075  0.26649232  0.30333626     0.36200
C2175       C  0.15863866  0.27688502  0.31122895    -0.26000
C2176       C  0.15008782  0.29080116  0.30162941     0.02700
C2177       C  0.15566923  0.29479818  0.28388343     0.27500
C2178       C  0.16967280  0.28462332  0.27601911    -0.25100
N2179       N  0.18094651  0.25234065  0.31361234    -0.82500
H2180       H  0.15435042  0.27403496  0.32495369     0.13300
C2181       C  0.13525457  0.30095443  0.31048014     0.02600
N2182       N  0.14692920  0.30898510  0.27385989    -0.81100
H2183       H  0.17371807  0.28762008  0.26225688     0.18100
C2184       C  0.13759427  0.31934780  0.31443624    -0.25900
C2185       C  0.12445676  0.32890114  0.32425914     0.36100
C2186       C  0.10861060  0.31999954  0.33001383    -0.19900
C2187       C  0.10596253  0.30179120  0.32542277    -0.25200
C2188       C  0.11920694  0.29212436  0.31581573     0.27500
H2189       H  0.14987433  0.32618870  0.31027766     0.13300
N2190       N  0.12717159  0.34766290  0.32823379    -0.82500
H2191       H  0.09376216  0.29495236  0.32980726     0.18100
N2192       N  0.11658451  0.27331833  0.31165575    -0.81100
H2193       H  0.12879133  0.35455978  0.31599914     0.33700
H2194       H  0.13919187  0.34890649  0.33557186     0.38200
H2195       H  0.10417794  0.26879219  0.31672083     0.33700
H2196       H  0.11591790  0.27210682  0.29758651     0.30400
H2197       H  0.15268047  0.31025120  0.26099938     0.33700
H2198       H  0.13345013  0.30517887  0.27190906     0.30400
H2199       H  0.17645983  0.24003448  0.30831477     0.38300
H2200       H  0.17649571  0.25260166  0.32703637     0.33700
C2201       C  0.81579522  0.26075173  0.29037666    -0.20000
C2202       C  0.82591242  0.27433291  0.28130654     0.36200
C2203       C  0.83979066  0.28345462  0.29055566    -0.26000
C2204       C  0.84361917  0.27972079  0.30870986     0.02700
C2205       C  0.83338147  0.26656838  0.31793842     0.27500
C2206       C  0.81965456  0.25720500  0.30869686    -0.25100
N2207       N  0.82219112  0.27889959  0.26277648    -0.82500
H2208       H  0.84751688  0.29381908  0.28365132     0.13300
C2209       C  0.85798862  0.29022696  0.31800519     0.02600
N2210       N  0.83708764  0.26267293  0.33662139    -0.81100
H2211       H  0.81208484  0.24691763  0.31586598     0.18100
C2212       C  0.85329561  0.30123939  0.33264560    -0.25900
C2213       C  0.86630341  0.31177912  0.34161912     0.36100
C2214       C  0.88449350  0.31185643  0.33538458    -0.19900
C2215       C  0.88912810  0.30055313  0.32074881    -0.25200
C2216       C  0.87612038  0.28962344  0.31215437     0.27500
H2217       H  0.83934646  0.30152659  0.33716083     0.13300
N2218       N  0.86104287  0.32201942  0.35726497    -0.82500
H2219       H  0.90294776  0.30024653  0.31588932     0.18100
N2220       N  0.88123103  0.27785348  0.29754151    -0.81100
H2221       H  0.84709825  0.32112635  0.35946574     0.33700
H2222       H  0.86718193  0.31586963  0.36840876     0.38200
H2223       H  0.89507105  0.27897125  0.29484878     0.33700
H2224       H  0.87901361  0.26455601  0.30180469     0.30400
H2225       H  0.82829988  0.25272027  0.34148249     0.33700
H2226       H  0.85014230  0.25728021  0.33735875     0.30400
H2227       H  0.80947239  0.28508179  0.26241550     0.38300
H2228       H  0.83139581  0.28851900  0.25801462     0.33700
C2229       C  0.94910341  0.32759504  0.34579010    -0.20000
C2230       C  0.95738620  0.32326551  0.32911316     0.36200
C2231       C  0.97646456  0.32255557  0.32804429    -0.26000
C2232       C  0.98720377  0.32614250  0.34331024     0.02700
C2233       C  0.97880421  0.32920621  0.36015672     0.27500
C2234       C  0.95993973  0.32999946  0.36117277    -0.25100
N2235       N  0.94653929  0.32045164  0.31324488    -0.82500
H2236       H  0.98296940  0.32014688  0.31513437     0.13300
C2237       C  0.00706738  0.32868724  0.34159896     0.02600
N2238       N  0.98956802  0.33206364  0.37610727    -0.81100
H2239       H  0.95363083  0.33293746  0.37407927     0.18100
C2240       C  0.01429337  0.34535801  0.34696960    -0.25900
C2241       C  0.03298030  0.34797282  0.34841040     0.36100
C2242       C  0.04484638  0.33352697  0.34443177    -0.19900
C2243       C  0.03770741  0.31728578  0.33753998    -0.25200
C2244       C  0.01884101  0.31470074  0.33612257     0.27500
H2245       H  0.00519208  0.35627747  0.35057790     0.13300
N2246       N  0.03992837  0.36524703  0.35403338    -0.82500
H2247       H  0.04679410  0.30631498  0.33408623     0.18100
N2248       N  0.01163440  0.29783902  0.32970077    -0.81100
H2249       H  0.02939106  0.37432064  0.35662805     0.33700
H2250       H  0.04730863  0.37058746  0.34321639     0.38200
H2251       H  0.02210507  0.28903397  0.32609586     0.33700
H2252       H  0.00470513  0.29176242  0.34042133     0.30400
H2253       H  0.98133998  0.33445537  0.38736373     0.33700
H2254       H  0.99662701  0.32008834  0.37869061     0.30400
H2255       H  0.94013049  0.33268377  0.31020787     0.38300
H2256       H  0.95473822  0.31731078  0.30215119     0.33700
C2257       C  0.33956895  0.08301745  0.33997952    -0.20000
C2258       C  0.32596852  0.07926631  0.32706313     0.36200
C2259       C  0.31716321  0.09356128  0.31818371    -0.26000
C2260       C  0.32171683  0.11162668  0.32172865     0.02700
C2261       C  0.33542354  0.11551258  0.33433475     0.27500
C2262       C  0.34408147  0.10124648  0.34339040    -0.25100
N2263       N  0.32100865  0.06104629  0.32278958    -0.82500
H2264       H  0.30661651  0.09052671  0.30847220     0.13300
C2265       C  0.31195551  0.12633340  0.31217534     0.02600
N2266       N  0.34061744  0.13393930  0.33774512    -0.81100
H2267       H  0.35452405  0.10452027  0.35311225     0.18100
C2268       C  0.30206997  0.13904663  0.32220463    -0.25900
C2269       C  0.29211040  0.15279374  0.31361237     0.36100
C2270       C  0.29172545  0.15359302  0.29446357    -0.19900
C2271       C  0.30216190  0.14110995  0.28453763    -0.25200
C2272       C  0.31232376  0.12759936  0.29318694     0.27500
H2273       H  0.30201381  0.13811677  0.33682989     0.13300
N2274       N  0.28242513  0.16584190  0.32430624    -0.82500
H2275       H  0.30219242  0.14164492  0.26989954     0.18100
N2276       N  0.32299350  0.11509980  0.28277449    -0.81100
H2277       H  0.28384489  0.16307079  0.33809772     0.33700
H2278       H  0.28847251  0.17843289  0.32211707     0.38200
H2279       H  0.32175503  0.11778899  0.26895033     0.33700
H2280       H  0.33656788  0.11725575  0.28610310     0.30400
H2281       H  0.35088620  0.13452348  0.34744421     0.33700
H2282       H  0.34607686  0.13912230  0.32577396     0.30400
H2283       H  0.30720522  0.05948716  0.32545069     0.38300
H2284       H  0.32307202  0.05904432  0.30894309     0.33700
C2285       C  0.30435506  0.78285136  0.30088664    -0.20000
C2286       C  0.30110272  0.78595726  0.31954220     0.36200
C2287       C  0.30950625  0.80064074  0.32813709    -0.26000
C2288       C  0.32138916  0.81192804  0.31870519     0.02700
C2289       C  0.32567912  0.80819420  0.30056551     0.27500
C2290       C  0.31714852  0.79367465  0.29182427    -0.25100
N2291       N  0.28911607  0.77446048  0.32966360    -0.82500
H2292       H  0.30665865  0.80345438  0.34224056     0.13300
C2293       C  0.32889589  0.82790369  0.32796104     0.02600
N2294       N  0.33832299  0.81945309  0.29100199    -0.81100
H2295       H  0.32000142  0.79131786  0.27764900     0.18100
C2296       C  0.34695133  0.82769121  0.33352760    -0.25900
C2297       C  0.35430056  0.84236270  0.34296573     0.36100
C2298       C  0.34343329  0.85757417  0.34689923    -0.19900
C2299       C  0.32543781  0.85794721  0.34083572    -0.25200
C2300       C  0.31803753  0.84318575  0.33141074     0.27500
H2301       H  0.35532794  0.81599547  0.33068087     0.13300
N2302       N  0.37291309  0.84185747  0.34824747    -0.82500
H2303       H  0.31703243  0.86958047  0.34381474     0.18100
N2304       N  0.29953665  0.84352676  0.32544009    -0.81100
H2305       H  0.37484321  0.83042834  0.35634162     0.33700
H2306       H  0.38077101  0.84030024  0.33659094     0.38200
H2307       H  0.29334724  0.85568931  0.32915122     0.33700
H2308       H  0.29961058  0.84316916  0.31130418     0.30400
H2309       H  0.34008904  0.81481982  0.27775720     0.33700
H2310       H  0.33267767  0.83238282  0.29005195     0.30400
H2311       H  0.29505446  0.76163764  0.33024161     0.38300
H2312       H  0.28792884  0.77893581  0.34302650     0.33700
C2313       C  0.34748974  0.92289805  0.36057881    -0.20000
C2314       C  0.35123096  0.93026873  0.34341569     0.36200
C2315       C  0.35016369  0.94906816  0.34083430    -0.26000
C2316       C  0.34544943  0.96059084  0.35517688     0.02700
C2317       C  0.34098594  0.95315110  0.37215767     0.27500
C2318       C  0.34200241  0.93436115  0.37465776    -0.25100
N2319       N  0.35723383  0.91886927  0.32894606    -0.82500
H2320       H  0.35381071  0.95476915  0.32783431     0.13300
C2321       C  0.34754572  0.98041573  0.35313709     0.02600
N2322       N  0.33624890  0.96478450  0.38700877    -0.81100
H2323       H  0.33920235  0.92866823  0.38787065     0.18100
C2324       C  0.33234829  0.99176490  0.35422771    -0.25900
C2325       C  0.33430382  0.01071713  0.35480992     0.36100
C2326       C  0.35180567  0.01831508  0.35421165    -0.19900
C2327       C  0.36690188  0.00691412  0.35258698    -0.25200
C2328       C  0.36496883  0.98806033  0.35206707     0.27500
H2329       H  0.31901471  0.98577226  0.35526045     0.13300
N2330       N  0.31871256  0.02216547  0.35680456    -0.82500
H2331       H  0.38033677  0.01276700  0.35217464     0.18100
N2332       N  0.38066660  0.97660273  0.35106009    -0.81100
H2333       H  0.31961426  0.02848580  0.36942233     0.33700
H2334       H  0.30687913  0.01442842  0.35702175     0.38200
H2335       H  0.39246072  0.98435961  0.35023962     0.33700
H2336       H  0.38146392  0.96933556  0.36316072     0.30400
H2337       H  0.33325035  0.95716630  0.39853557     0.33700
H2338       H  0.34763265  0.97255190  0.39016957     0.30400
H2339       H  0.34837415  0.92057876  0.31806653     0.38300
H2340       H  0.37004317  0.92327915  0.32487646     0.33700
C2341       C  0.34492926  0.62165528  0.11077264    -0.20000
C2342       C  0.33995902  0.61391981  0.12759445     0.36200
C2343       C  0.33261348  0.62495393  0.14116568    -0.26000
C2344       C  0.32967567  0.64342126  0.13822820     0.02700
C2345       C  0.33451714  0.65116934  0.12146088     0.27500
C2346       C  0.34212890  0.64020232  0.10791228    -0.25100
N2347       N  0.34208936  0.59484864  0.13078619    -0.82500
H2348       H  0.32897516  0.61909257  0.15409654     0.13300
C2349       C  0.32113271  0.65439248  0.15270705     0.02600
N2350       N  0.33157093  0.67011262  0.11823598    -0.81100
H2351       H  0.34605133  0.64620108  0.09513323     0.18100
C2352       C  0.33010947  0.66973121  0.15924341    -0.25900
C2353       C  0.32204087  0.68109013  0.17216334     0.36100
C2354       C  0.30469747  0.67672192  0.17909810    -0.19900
C2355       C  0.29601374  0.66097671  0.17288356    -0.25200
C2356       C  0.30399015  0.64983455  0.15973018     0.27500
H2357       H  0.34337792  0.67303235  0.15395308     0.13300
N2358       N  0.33127468  0.69721253  0.17785884    -0.82500
H2359       H  0.28282817  0.65738231  0.17817573     0.18100
N2360       N  0.29463868  0.63404692  0.15328949    -0.81100
H2361       H  0.34408723  0.69804108  0.17191857     0.33700
H2362       H  0.32389202  0.70822440  0.17294420     0.38200
H2363       H  0.28223881  0.63251898  0.15992517     0.33700
H2364       H  0.29169684  0.63608369  0.13961474     0.30400
H2365       H  0.33601394  0.67371359  0.10530402     0.33700
H2366       H  0.31761528  0.67239046  0.11852468     0.30400
H2367       H  0.33798426  0.59144096  0.14388200     0.38300
H2368       H  0.33339913  0.58805140  0.12194638     0.33700
C2369       C  0.34138371  0.62141363  0.88682130    -0.20000
C2370       C  0.32342442  0.62694004  0.89063804     0.36200
C2371       C  0.31274790  0.63447384  0.87675151    -0.26000
C2372       C  0.31954640  0.63637439  0.85915440     0.02700
C2373       C  0.33717997  0.63042275  0.85518431     0.27500
C2374       C  0.34791150  0.62307908  0.86901019    -0.25100
N2375       N  0.31598298  0.62471794  0.90845043    -0.82500
H2376       H  0.29911138  0.63900965  0.87965669     0.13300
C2377       C  0.30850822  0.64539749  0.84505209     0.02600
N2378       N  0.34414433  0.63202654  0.83709652    -0.81100
H2379       H  0.36158354  0.61886018  0.86583919     0.18100
C2380       C  0.31345293  0.66275092  0.83941242    -0.25900
C2381       C  0.30405666  0.67167795  0.82552099     0.36100
C2382       C  0.28905950  0.66306281  0.81710978    -0.19900
C2383       C  0.28418932  0.64556213  0.82290427    -0.25200
C2384       C  0.29380261  0.63664593  0.83673232     0.27500
H2385       H  0.32489665  0.66929601  0.84581786     0.13300
N2386       N  0.30981546  0.68942594  0.82002606    -0.82500
H2387       H  0.27277562  0.63879523  0.81670688     0.18100
N2388       N  0.28875490  0.61873365  0.84233053    -0.81100
H2389       H  0.32040490  0.69406010  0.82817015     0.33700
H2390       H  0.31507083  0.68831730  0.80694243     0.38200
H2391       H  0.27758879  0.61419474  0.83494245     0.33700
H2392       H  0.29948636  0.61007651  0.83916404     0.30400
H2393       H  0.35740427  0.62715190  0.83639918     0.33700
H2394       H  0.33633952  0.62368576  0.82876594     0.30400
H2395       H  0.31512948  0.61083165  0.91096817     0.38300
H2396       H  0.30276497  0.62972087  0.90902192     0.33700
C2397       C  0.36101493  0.61517191  0.95090283    -0.20000
C2398       C  0.34367620  0.61597583  0.95891226     0.36200
C2399       C  0.34201730  0.61702037  0.97782808    -0.26000
C2400       C  0.35738733  0.61703835  0.98889298     0.02700
C2401       C  0.37471425  0.61674045  0.98099349     0.27500
C2402       C  0.37636592  0.61590950  0.96209882    -0.25100
N2403       N  0.32772768  0.61454462  0.94804676    -0.82500
H2404       H  0.32868710  0.61681934  0.98393369     0.13300
C2405       C  0.35545114  0.61418218  0.00857589     0.02600
N2406       N  0.39053082  0.61637234  0.99229925    -0.81100
H2407       H  0.38973579  0.61530303  0.95611047     0.18100
C2408       C  0.35719477  0.59651821  0.01501750    -0.25900
C2409       C  0.35782053  0.59293304  0.03355100     0.36100
C2410       C  0.35667097  0.60730918  0.04611680    -0.19900
C2411       C  0.35390720  0.62499855  0.03963648    -0.25200
C2412       C  0.35346389  0.62859785  0.02088752     0.27500
H2413       H  0.35858400  0.58542472  0.00552508     0.13300
N2414       N  0.35967324  0.57458633  0.03949819    -0.82500
H2415       H  0.35288360  0.63609216  0.04915337     0.18100
N2416       N  0.35136340  0.64676064  0.01431494    -0.81100
H2417       H  0.34883927  0.56713568  0.03430769     0.33700
H2418       H  0.37163019  0.56935290  0.03402968     0.38200
H2419       H  0.34999953  0.65578522  0.02511658     0.33700
H2420       H  0.36327994  0.65029446  0.00756687     0.30400
H2421       H  0.40227015  0.61574588  0.98443189     0.33700
H2422       H  0.39102167  0.62860885  0.99936247     0.30400
H2423       H  0.31972662  0.62595490  0.95044490     0.38300
H2424       H  0.32049358  0.60316034  0.95228651     0.33700
C2425       C  0.70377626  0.26329898  0.17479792    -0.20000
C2426       C  0.68631782  0.25765900  0.16925760     0.36200
C2427       C  0.67721546  0.26742630  0.15569026    -0.26000
C2428       C  0.68516293  0.28263199  0.14761716     0.02700
C2429       C  0.70258881  0.28813328  0.15297649     0.27500
C2430       C  0.71161886  0.27853319  0.16656733    -0.25100
N2431       N  0.67780572  0.24222497  0.17746725    -0.82500
H2432       H  0.66377385  0.26332900  0.15153258     0.13300
C2433       C  0.67519779  0.29295652  0.13364879     0.02600
N2434       N  0.71112946  0.30336153  0.14440281    -0.81100
H2435       H  0.72507505  0.28281520  0.17047381     0.18100
C2436       C  0.67162452  0.31131694  0.13669108    -0.25900
C2437       C  0.66376539  0.32207458  0.12325627     0.36100
C2438       C  0.65920030  0.31436029  0.10640617    -0.19900
C2439       C  0.66237863  0.29584290  0.10352063    -0.25200
C2440       C  0.67029988  0.28503053  0.11701464     0.27500
H2441       H  0.67532286  0.31743351  0.14948948     0.13300
N2442       N  0.66101736  0.34095750  0.12661648    -0.82500
H2443       H  0.65864939  0.28978104  0.09071582     0.18100
N2444       N  0.67363263  0.26614584  0.11381490    -0.81100
H2445       H  0.67352632  0.34674368  0.12977405     0.33700
H2446       H  0.65260583  0.34225444  0.13791618     0.38200
H2447       H  0.66909160  0.26240536  0.10096018     0.33700
H2448       H  0.68763767  0.26417613  0.11389084     0.30400
H2449       H  0.72392398  0.30571094  0.14994313     0.33700
H2450       H  0.71316808  0.30003397  0.13080944     0.30400
H2451       H  0.67532120  0.24542661  0.19101596     0.38300
H2452       H  0.66520456  0.23972442  0.17155921     0.33700
C2453       C  0.66190886  0.31019603  0.88205147    -0.20000
C2454       C  0.67688330  0.29878737  0.88542746     0.36200
C2455       C  0.68423043  0.28843493  0.87128936    -0.26000
C2456       C  0.67698284  0.28928934  0.85380015     0.02700
C2457       C  0.66210165  0.30056785  0.85029039     0.27500
C2458       C  0.65462603  0.31075991  0.86443356    -0.25100
N2459       N  0.68497008  0.29790551  0.90299615    -0.82500
H2460       H  0.69577970  0.27979725  0.87392876     0.13300
C2461       C  0.68541204  0.27869069  0.83910162     0.02600
N2462       N  0.65483904  0.30181672  0.83229618    -0.81100
H2463       H  0.64313326  0.31936039  0.86151994     0.18100
C2464       C  0.67610936  0.26394905  0.83171912    -0.25900
C2465       C  0.68380126  0.25344061  0.81783936     0.36100
C2466       C  0.70142221  0.25764330  0.81148493    -0.19900
C2467       C  0.71035699  0.27288763  0.81864035    -0.25200
C2468       C  0.70247263  0.28349539  0.83224920     0.27500
H2469       H  0.66280044  0.26061820  0.83689068     0.13300
N2470       N  0.67384448  0.23845121  0.81048800    -0.82500
H2471       H  0.72367245  0.27653955  0.81373309     0.18100
N2472       N  0.71171142  0.29913065  0.83919467    -0.81100
H2473       H  0.66156531  0.23676882  0.81730954     0.33700
H2474       H  0.67051800  0.24173777  0.79714639     0.38200
H2475       H  0.72421079  0.30078687  0.83278077     0.33700
H2476       H  0.70395080  0.31048859  0.83590636     0.30400
H2477       H  0.64383597  0.31069874  0.83197012     0.33700
H2478       H  0.66483070  0.30746855  0.82403216     0.30400
H2479       H  0.69855699  0.30164363  0.90179284     0.38300
H2480       H  0.68449487  0.28448065  0.90739830     0.33700
C2481       C  0.65361820  0.32926151  0.94613236    -0.20000
C2482       C  0.65434750  0.31195708  0.95417704     0.36200
C2483       C  0.65489181  0.31037307  0.97312290    -0.26000
C2484       C  0.65478634  0.32579577  0.98413639     0.02700
C2485       C  0.65476222  0.34309469  0.97617049     0.27500
C2486       C  0.65419950  0.34464919  0.95726356    -0.25100
N2487       N  0.65359246  0.29597856  0.94326396    -0.82500
H2488       H  0.65475469  0.29707320  0.97927012     0.13300
C2489       C  0.65272569  0.32395996  0.00394174     0.02600
N2490       N  0.65489890  0.35900532  0.98736357    -0.81100
H2491       H  0.65377104  0.35797540  0.95118613     0.18100
C2492       C  0.66793843  0.32530167  0.01518596    -0.25900
C2493       C  0.66597408  0.32657254  0.03409612     0.36100
C2494       C  0.64844387  0.32670809  0.04168136    -0.19900
C2495       C  0.63334300  0.32451685  0.03043687    -0.25200
C2496       C  0.63531473  0.32299593  0.01163055     0.27500
H2497       H  0.68127058  0.32606153  0.00913543     0.13300
N2498       N  0.68159596  0.32851060  0.04549864    -0.82500
H2499       H  0.61992042  0.32444578  0.03634712     0.18100
N2500       N  0.61969339  0.32091689  0.00023861    -0.81100
H2501       H  0.69344707  0.32808277  0.03778293     0.33700
H2502       H  0.68105489  0.34135820  0.05137910     0.38200
H2503       H  0.60792210  0.32012527  0.00804483     0.33700
H2504       H  0.61850000  0.33258027  0.99234727     0.30400
H2505       H  0.65508864  0.37068203  0.97939671     0.33700
H2506       H  0.64276210  0.35930766  0.99462124     0.30400
H2507       H  0.66511926  0.28825107  0.94598510     0.38300
H2508       H  0.64226414  0.28848617  0.94720254     0.33700
C2509       C  0.33362657  0.07519794  0.65319427    -0.20000
C2510       C  0.31610029  0.07325834  0.66062520     0.36200
C2511       C  0.30858612  0.08757743  0.67066599    -0.26000
C2512       C  0.31811276  0.10380544  0.67320064     0.02700
C2513       C  0.33574393  0.10554567  0.66616865     0.27500
C2514       C  0.34329334  0.09124350  0.65626802    -0.25100
N2515       N  0.30581624  0.05704439  0.65756797    -0.82500
H2516       H  0.29506512  0.08628411  0.67618934     0.13300
C2517       C  0.30908214  0.11935869  0.68211780     0.02600
N2518       N  0.34578524  0.12198320  0.66880713    -0.81100
H2519       H  0.35683728  0.09268790  0.65085378     0.18100
C2520       C  0.31696136  0.12732046  0.69741634    -0.25900
C2521       C  0.30930776  0.14274078  0.70551323     0.36100
C2522       C  0.29302986  0.15002422  0.69844521    -0.19900
C2523       C  0.28531949  0.14204685  0.68301154    -0.25200
C2524       C  0.29322098  0.12690619  0.67472756     0.27500
H2525       H  0.32927013  0.12157120  0.70292010     0.13300
N2526       N  0.31811271  0.15103997  0.72073891    -0.82500
H2527       H  0.27288639  0.14746991  0.67747651     0.18100
N2528       N  0.28526710  0.11921794  0.65873672    -0.81100
H2529       H  0.32974002  0.14384103  0.72435256     0.33700
H2530       H  0.32244236  0.16386784  0.71666319     0.38200
H2531       H  0.27357317  0.12628022  0.65508340     0.33700
H2532       H  0.29448426  0.12089100  0.64813777     0.30400
H2533       H  0.35861773  0.12100525  0.66293349     0.33700
H2534       H  0.33897692  0.13231503  0.66197089     0.30400
H2535       H  0.29328451  0.05777987  0.66409609     0.38300
H2536       H  0.30310504  0.05626060  0.64371446     0.33700
C2537       C  0.34279820  0.85374878  0.66706532    -0.20000
C2538       C  0.33619612  0.85412913  0.68502198     0.36200
C2539       C  0.32749080  0.83876233  0.69201687    -0.26000
C2540       C  0.32494180  0.82331890  0.68134808     0.02700
C2541       C  0.33101555  0.82307595  0.66334332     0.27500
C2542       C  0.33990910  0.83828038  0.65638356    -0.25100
N2543       N  0.33888269  0.86973281  0.69630471    -0.82500
H2544       H  0.32260410  0.83879685  0.70583834     0.13300
C2545       C  0.31576233  0.80747370  0.68920722     0.02600
N2546       N  0.32831724  0.80729041  0.65231749    -0.81100
H2547       H  0.34478184  0.83796548  0.64256552     0.18100
C2548       C  0.29829486  0.80316619  0.68341304    -0.25900
C2549       C  0.28878229  0.78871531  0.69111682     0.36100
C2550       C  0.29691447  0.77825310  0.70495732    -0.19900
C2551       C  0.31476461  0.78234833  0.71024769    -0.25200
C2552       C  0.32425671  0.79684489  0.70248488     0.27500
H2553       H  0.29186535  0.81130878  0.67305804     0.13300
N2554       N  0.27077921  0.78501730  0.68498647    -0.82500
H2555       H  0.32127498  0.77446498  0.72073193     0.18100
N2556       N  0.34241100  0.80095677  0.70811308    -0.81100
H2557       H  0.27128944  0.78246993  0.67108696     0.33700
H2558       H  0.26292500  0.79660245  0.68703963     0.38200
H2559       H  0.34668726  0.79191275  0.71810086     0.33700
H2560       H  0.35090224  0.79897591  0.69697163     0.30400
H2561       H  0.33349906  0.80934845  0.63932062     0.33700
H2562       H  0.33581269  0.79674585  0.65802381     0.30400
H2563       H  0.33047143  0.87998516  0.69140748     0.38300
H2564       H  0.33452119  0.86713654  0.70950413     0.33700
C2565       C  0.35781823  0.91839537  0.66080607    -0.20000
C2566       C  0.37169792  0.93093383  0.66429838     0.36200
C2567       C  0.36786236  0.94946477  0.66394126    -0.26000
C2568       C  0.35044095  0.95559339  0.65975320     0.02700
C2569       C  0.33628422  0.94312151  0.65725251     0.27500
C2570       C  0.34006170  0.92452752  0.65809417    -0.25100
N2571       N  0.38979187  0.92487133  0.66766295    -0.82500
H2572       H  0.37875961  0.95910397  0.66573106     0.13300
C2573       C  0.34818475  0.97460360  0.65439457     0.02600
N2574       N  0.31846613  0.94942600  0.65270320    -0.81100
H2575       H  0.32941522  0.91484954  0.65531999     0.18100
C2576       C  0.35040760  0.97882384  0.63610219    -0.25900
C2577       C  0.34998845  0.99676916  0.63013758     0.36100
C2578       C  0.34721228  0.01079780  0.64282791    -0.19900
C2579       C  0.34433291  0.00645057  0.66112909    -0.25200
C2580       C  0.34497634  0.98839900  0.66707649     0.27500
H2581       H  0.35286862  0.96801988  0.62649497     0.13300
N2582       N  0.35254534  0.00078090  0.61127814    -0.82500
H2583       H  0.34232775  0.01717963  0.67090690     0.18100
N2584       N  0.34297641  0.98405345  0.68590985    -0.81100
H2585       H  0.35472642  0.98893574  0.60386309     0.33700
H2586       H  0.34051278  0.00643077  0.60646100     0.38200
H2587       H  0.34096872  0.99581047  0.69350935     0.33700
H2588       H  0.33123900  0.97629973  0.68729912     0.30400
H2589       H  0.30967194  0.93851161  0.65085981     0.33700
H2590       H  0.31356491  0.95674879  0.66376183     0.30400
H2591       H  0.39379099  0.92982500  0.68028487     0.38300
H2592       H  0.39824879  0.93055698  0.65785577     0.33700
C2593       C  0.11341192  0.31596557  0.65496576    -0.20000
C2594       C  0.11184734  0.30987837  0.67297053     0.36200
C2595       C  0.12685489  0.30208621  0.68161512    -0.26000
C2596       C  0.14352612  0.30032422  0.67266653     0.02700
C2597       C  0.14517675  0.30647419  0.65468794     0.27500
C2598       C  0.13011966  0.31418770  0.64603862    -0.25100
N2599       N  0.09522873  0.31199641  0.68271012    -0.82500
H2600       H  0.12545978  0.29731569  0.69540139     0.13300
C2601       C  0.15895338  0.29156743  0.68214004     0.02600
N2602       N  0.16217510  0.30499162  0.64534437    -0.81100
H2603       H  0.13145670  0.31881604  0.63220209     0.18100
C2604       C  0.16687956  0.27606847  0.67460947    -0.25900
C2605       C  0.18073080  0.26674988  0.68362355     0.36100
C2606       C  0.18674754  0.27281439  0.70071877    -0.19900
C2607       C  0.17921758  0.28876575  0.70793280    -0.25200
C2608       C  0.16545727  0.29822911  0.69878700     0.27500
H2609       H  0.16205413  0.27094879  0.66175452     0.13300
N2610       N  0.18864609  0.25115862  0.67527410    -0.82500
H2611       H  0.18376607  0.29368126  0.72096077     0.18100
N2612       N  0.15798269  0.31451167  0.70636190    -0.81100
H2613       H  0.19395372  0.25506956  0.66276284     0.33700
H2614       H  0.17838368  0.24172215  0.67292696     0.38200
H2615       H  0.16417071  0.31755973  0.71870000     0.33700
H2616       H  0.16107531  0.32512664  0.69754891     0.30400
H2617       H  0.16108873  0.31001694  0.63217453     0.33700
H2618       H  0.17147955  0.31323643  0.65207204     0.30400
H2619       H  0.09098537  0.29921238  0.68699687     0.38300
H2620       H  0.09781801  0.31982262  0.69419808     0.33700
C2621       C  0.82085034  0.26452298  0.70467347    -0.20000
C2622       C  0.82487128  0.25967955  0.68659557     0.36200
C2623       C  0.83902608  0.26848047  0.67750025    -0.26000
C2624       C  0.84902526  0.28212165  0.68598804     0.02700
C2625       C  0.84484402  0.28728784  0.70381534     0.27500
C2626       C  0.83069374  0.27851736  0.71297094    -0.25100
N2627       N  0.81449986  0.24598262  0.67748950    -0.82500
H2628       H  0.84224917  0.26478589  0.66368334     0.13300
C2629       C  0.86380380  0.29097791  0.67592248     0.02600
N2630       N  0.85519041  0.30121090  0.71258816    -0.81100
H2631       H  0.82772396  0.28224144  0.72683108     0.18100
C2632       C  0.86141804  0.30871655  0.66980186    -0.25900
C2633       C  0.87485995  0.31736504  0.65955471     0.36100
C2634       C  0.89093430  0.30789453  0.65519463    -0.19900
C2635       C  0.89346162  0.29028687  0.66188799    -0.25200
C2636       C  0.88002949  0.28173495  0.67222163     0.27500
H2637       H  0.84893642  0.31575273  0.67292683     0.13300
N2638       N  0.87224679  0.33570684  0.65366021    -0.82500
H2639       H  0.90574577  0.28296874  0.65866273     0.18100
N2640       N  0.88266941  0.26364747  0.67883306    -0.81100
H2641       H  0.85964159  0.34057945  0.65784958     0.33700
H2642       H  0.88199211  0.34367093  0.66009887     0.38200
H2643       H  0.89530206  0.25868677  0.67483327     0.33700
H2644       H  0.88285401  0.26425665  0.69295761     0.30400
H2645       H  0.85039320  0.30343626  0.72570482     0.33700
H2646       H  0.86846982  0.29650560  0.71387315     0.30400
H2647       H  0.80125243  0.25078911  0.67625556     0.38300
H2648       H  0.81931451  0.24396651  0.66434386     0.33700
C2649       C  0.95398957  0.31160384  0.63344143    -0.20000
C2650       C  0.96562454  0.31092244  0.61826007     0.36200
C2651       C  0.98441258  0.31027197  0.62093357    -0.26000
C2652       C  0.99168138  0.31020738  0.63840446     0.02700
C2653       C  0.98013988  0.30954144  0.65350720     0.27500
C2654       C  0.96133531  0.31011084  0.65089465    -0.25100
N2655       N  0.95834860  0.31140703  0.60023322    -0.82500
H2656       H  0.99345773  0.31073809  0.60940093     0.13300
C2657       C  0.01114420  0.31383375  0.64069555     0.02600
N2658       N  0.98765330  0.30920997  0.67142231    -0.81100
H2659       H  0.95247502  0.31049781  0.66256327     0.18100
C2660       C  0.01641939  0.33162659  0.64438039    -0.25900
C2661       C  0.03474179  0.33635133  0.64511869     0.36100
C2662       C  0.04799469  0.32295071  0.64220706    -0.19900
C2663       C  0.04274078  0.30494343  0.63930975    -0.25200
C2664       C  0.02430299  0.30026320  0.63838346     0.27500
H2665       H  0.00615214  0.34194467  0.64618150     0.13300
N2666       N  0.03999770  0.35477261  0.64844673    -0.82500
H2667       H  0.05299254  0.29475169  0.63686968     0.18100
N2668       N  0.01886571  0.28200421  0.63458842    -0.81100
H2669       H  0.02860172  0.36298486  0.65012362     0.33700
H2670       H  0.04701842  0.35504445  0.66071426     0.38200
H2671       H  0.03021227  0.27369485  0.63307202     0.33700
H2672       H  0.01181277  0.27722152  0.64587359     0.30400
H2673       H  0.97735331  0.30899834  0.68111414     0.33700
H2674       H  0.99478809  0.29708016  0.67281564     0.30400
H2675       H  0.95067296  0.29967489  0.59841933     0.38300
H2676       H  0.96873063  0.31098401  0.59063410     0.33700
C2677       C  0.65655242  0.07949231  0.34078153    -0.20000
C2678       C  0.67426465  0.07725014  0.33375327     0.36200
C2679       C  0.68231857  0.09147281  0.32401758    -0.26000
C2680       C  0.67304771  0.10770455  0.32090183     0.02700
C2681       C  0.65540390  0.10993555  0.32766068     0.27500
C2682       C  0.64733612  0.09583216  0.33744398    -0.25100
N2683       N  0.68422947  0.06083630  0.33678105    -0.82500
H2684       H  0.69585980  0.08984898  0.31862780     0.13300
C2685       C  0.68186223  0.12214037  0.31019192     0.02600
N2686       N  0.64584986  0.12662203  0.32473854    -0.81100
H2687       H  0.63374827  0.09772977  0.34260020     0.18100
C2688       C  0.67442732  0.12708414  0.29349417    -0.25900
C2689       C  0.68267746  0.14026819  0.28265197     0.36100
C2690       C  0.69866265  0.14889296  0.28865941    -0.19900
C2691       C  0.70598813  0.14393466  0.30551135    -0.25200
C2692       C  0.69770695  0.13071611  0.31635877     0.27500
H2693       H  0.66230305  0.12039756  0.28868218     0.13300
N2694       N  0.67502461  0.14438174  0.26534268    -0.82500
H2695       H  0.71820595  0.15043341  0.31031508     0.18100
N2696       N  0.70525773  0.12599726  0.33363683    -0.81100
H2697       H  0.67458601  0.13244601  0.25777131     0.33700
H2698       H  0.66173211  0.14879109  0.26733512     0.38200
H2699       H  0.71700663  0.13345593  0.33613747     0.33700
H2700       H  0.69589024  0.12974473  0.34355470     0.30400
H2701       H  0.63294830  0.12607490  0.33051573     0.33700
H2702       H  0.65288793  0.13682262  0.33154192     0.30400
H2703       H  0.67825903  0.05077158  0.32885543     0.38300
H2704       H  0.69750690  0.06210281  0.33206510     0.33700
C2705       C  0.66228034  0.85681872  0.35920225    -0.20000
C2706       C  0.67224622  0.85939013  0.34306625     0.36200
C2707       C  0.68035340  0.84441896  0.33465903    -0.26000
C2708       C  0.67840632  0.82697863  0.34178910     0.02700
C2709       C  0.66828245  0.82429809  0.35766843     0.27500
C2710       C  0.66041319  0.83924201  0.36626920    -0.25100
N2711       N  0.67388332  0.87703608  0.33507806    -0.82500
H2712       H  0.68819535  0.84630924  0.32241704     0.13300
C2713       C  0.68729629  0.81166111  0.33257469     0.02600
N2714       N  0.66598799  0.80639937  0.36491506    -0.81100
H2715       H  0.65280467  0.83709853  0.37860877     0.18100
C2716       C  0.70075116  0.80199361  0.34170966    -0.25900
C2717       C  0.71015822  0.78795265  0.33316854     0.36100
C2718       C  0.70594434  0.78330900  0.31507175    -0.19900
C2719       C  0.69209149  0.79284793  0.30613694    -0.25200
C2720       C  0.68278102  0.80700284  0.31468752     0.27500
H2721       H  0.70426371  0.80565190  0.35546385     0.13300
N2722       N  0.72417502  0.77877254  0.34289810    -0.82500
H2723       H  0.68867439  0.78951459  0.29229177     0.18100
N2724       N  0.66887021  0.81678806  0.30525941    -0.81100
H2725       H  0.71851214  0.77321811  0.35460367     0.33700
H2726       H  0.73383369  0.78833107  0.34680967     0.38200
H2727       H  0.66731497  0.81181537  0.29211513     0.33700
H2728       H  0.65665258  0.81441366  0.31197810     0.30400
H2729       H  0.65822616  0.80676181  0.37673506     0.33700
H2730       H  0.65862795  0.79887530  0.35547698     0.30400
H2731       H  0.66098372  0.88099866  0.33084395     0.38300
H2732       H  0.68194382  0.87654987  0.32346373     0.33700
C2733       C  0.65620865  0.92196990  0.37330225    -0.20000
C2734       C  0.65555954  0.93430582  0.38784496     0.36200
C2735       C  0.65664051  0.95287183  0.38431836    -0.26000
C2736       C  0.65837463  0.95929445  0.36659981     0.02700
C2737       C  0.66051502  0.94700779  0.35219686     0.27500
C2738       C  0.65962612  0.92832566  0.35573085    -0.25100
N2739       N  0.65318967  0.92792251  0.40606163    -0.82500
H2740       H  0.65514659  0.96245564  0.39531332     0.13300
C2741       C  0.65492984  0.97868098  0.36338468     0.02600
N2742       N  0.66272475  0.95355593  0.33403363    -0.81100
H2743       H  0.66027277  0.91880984  0.34460289     0.18100
C2744       C  0.66931433  0.99070512  0.36061002    -0.25900
C2745       C  0.66624930  0.00951526  0.35994944     0.36100
C2746       C  0.64842105  0.01618270  0.36188932    -0.19900
C2747       C  0.63406737  0.00394442  0.36402098    -0.25200
C2748       C  0.63713490  0.98529461  0.36477642     0.27500
H2749       H  0.68296724  0.98544545  0.35970046     0.13300
N2750       N  0.68118705  0.02180553  0.35812385    -0.82500
H2751       H  0.62036225  0.00898427  0.36535269     0.18100
N2752       N  0.62231623  0.97298425  0.36749158    -0.81100
H2753       H  0.69334792  0.01469107  0.35685230     0.33700
H2754       H  0.68209237  0.02924000  0.37011853     0.38200
H2755       H  0.61009251  0.98002409  0.36855468     0.33700
H2756       H  0.62133358  0.96487067  0.35595368     0.30400
H2757       H  0.66417331  0.94274821  0.32502784     0.33700
H2758       H  0.65082142  0.96027465  0.33040634     0.30400
H2759       H  0.66459062  0.92024348  0.40938578     0.38300
H2760       H  0.65280251  0.93875374  0.41514519     0.33700
C2761       C  0.11661770  0.62984609  0.33658542    -0.20000
C2762       C  0.11260220  0.64460699  0.32502696     0.36200
C2763       C  0.12661647  0.65342781  0.31575337    -0.26000
C2764       C  0.14461283  0.64798138  0.31786578     0.02700
C2765       C  0.14882496  0.63352555  0.32945552     0.27500
C2766       C  0.13483552  0.62461953  0.33869905    -0.25100
N2767       N  0.09440865  0.65082599  0.32263237    -0.82500
H2768       H  0.12343385  0.66462542  0.30684779     0.13300
C2769       C  0.15899520  0.65726020  0.30758822     0.02600
N2770       N  0.16731258  0.62788947  0.33166072    -0.81100
H2771       H  0.13827171  0.61339897  0.34745051     0.18100
C2772       C  0.17086299  0.66886970  0.31668995    -0.25900
C2773       C  0.18504835  0.67750129  0.30745064     0.36100
C2774       C  0.18732470  0.67437876  0.28871147    -0.19900
C2775       C  0.17548529  0.66256102  0.27971538    -0.25200
C2776       C  0.16126865  0.65403672  0.28896894     0.27500
H2777       H  0.16905863  0.67111417  0.33106260     0.13300
N2778       N  0.19723614  0.68921451  0.31705688    -0.82500
H2779       H  0.17711331  0.66024033  0.26533505     0.18100
N2780       N  0.14908201  0.64216250  0.27957071    -0.81100
H2781       H  0.19354901  0.69016551  0.33067864     0.33700
H2782       H  0.21004888  0.68322776  0.31673606     0.38200
H2783       H  0.15250192  0.64137108  0.26587049     0.33700
H2784       H  0.15077543  0.62918267  0.28490806     0.30400
H2785       H  0.16817802  0.61711800  0.34077098     0.33700
H2786       H  0.17183677  0.62299836  0.31918224     0.30400
H2787       H  0.09382982  0.66441525  0.32649811     0.38300
H2788       H  0.09124731  0.65003611  0.30887539     0.33700
C2789       C  0.89366809  0.62919175  0.35069414    -0.20000
C2790       C  0.89633852  0.64498090  0.34015007     0.36200
C2791       C  0.88157961  0.65260438  0.33091197    -0.26000
C2792       C  0.86435640  0.64475305  0.33178294     0.02700
C2793       C  0.86172753  0.62885398  0.34187904     0.27500
C2794       C  0.87638572  0.62121469  0.35114050    -0.25100
N2795       N  0.91376483  0.65355398  0.33917263    -0.82500
H2796       H  0.88348002  0.66476195  0.32295480     0.13300
C2797       C  0.84905862  0.65349353  0.32231542     0.02600
N2798       N  0.84408513  0.62073278  0.34295496    -0.81100
H2799       H  0.87417495  0.60901874  0.35893995     0.18100
C2800       C  0.83988943  0.64397870  0.30875940    -0.25900
C2801       C  0.82504223  0.65162927  0.29971157     0.36100
C2802       C  0.81940706  0.66942450  0.30419666    -0.19900
C2803       C  0.82872210  0.67883749  0.31789478    -0.25200
C2804       C  0.84340310  0.67104158  0.32701775     0.27500
H2805       H  0.84435959  0.63046180  0.30526418     0.13300
N2806       N  0.81591099  0.64139277  0.28593266    -0.82500
H2807       H  0.82463453  0.69243155  0.32151842     0.18100
N2808       N  0.85256983  0.68083677  0.34109583    -0.81100
H2809       H  0.82240830  0.62902690  0.28370923     0.33700
H2810       H  0.80301846  0.63827015  0.29083935     0.38200
H2811       H  0.84684125  0.69365293  0.34281736     0.33700
H2812       H  0.85052307  0.67384142  0.35320970     0.30400
H2813       H  0.84445001  0.60901390  0.35085349     0.33700
H2814       H  0.83556613  0.62984307  0.34962967     0.30400
H2815       H  0.92211639  0.64525984  0.33132831     0.38300
H2816       H  0.91289824  0.66583760  0.33222704     0.33700
C2817       C  0.95836593  0.62001068  0.36463297    -0.20000
C2818       C  0.97145979  0.62071384  0.37852649     0.36200
C2819       C  0.98980616  0.62248690  0.37395147    -0.26000
C2820       C  0.99525232  0.62371857  0.35585181     0.02700
C2821       C  0.98220301  0.62402995  0.34202871     0.27500
C2822       C  0.96382093  0.62224638  0.34655224    -0.25100
N2823       N  0.96610329  0.61957034  0.39718655    -0.82500
H2824       H  0.99998598  0.62233965  0.38449377     0.13300
C2825       C  0.01473035  0.62245703  0.35166500     0.02600
N2826       N  0.98776093  0.62568369  0.32347788    -0.81100
H2827       H  0.95379042  0.62194899  0.33587926     0.18100
C2828       C  0.02156672  0.60576085  0.34590411    -0.25900
C2829       C  0.04026176  0.60278875  0.34480662     0.36100
C2830       C  0.05223953  0.61684213  0.34947480    -0.19900
C2831       C  0.04541385  0.63397394  0.35395396    -0.25200
C2832       C  0.02664106  0.63688640  0.35522097     0.27500
H2833       H  0.01227756  0.59478066  0.34308762     0.13300
N2834       N  0.04719715  0.58541968  0.33947592    -0.82500
H2835       H  0.05471510  0.64473578  0.35747178     0.18100
N2836       N  0.01960544  0.65414515  0.36073124    -0.81100
H2837       H  0.03659908  0.57651250  0.33660965     0.33700
H2838       H  0.05435433  0.58720848  0.32740763     0.38200
H2839       H  0.03016162  0.66327860  0.36297662     0.33700
H2840       H  0.01203119  0.65928624  0.34995865     0.30400
H2841       H  0.97650663  0.62557956  0.31492297     0.33700
H2842       H  0.99386135  0.63834980  0.32197892     0.30400
H2843       H  0.95825252  0.63097669  0.40007794     0.38300
H2844       H  0.97740228  0.62019770  0.40566201     0.33700
C2845       C  0.70023111  0.67632382  0.19390987    -0.20000
C2846       C  0.68518589  0.68420002  0.18501493     0.36200
C2847       C  0.67616835  0.67446364  0.17142330    -0.26000
C2848       C  0.68199442  0.65722263  0.16618838     0.02700
C2849       C  0.69723564  0.64948653  0.17462385     0.27500
C2850       C  0.70623462  0.65912594  0.18836079    -0.25100
N2851       N  0.67929596  0.70218795  0.18949119    -0.82500
H2852       H  0.66460438  0.68042972  0.16467621     0.13300
C2853       C  0.67176540  0.64742806  0.15196041     0.02600
N2854       N  0.70335420  0.63180110  0.16934596    -0.81100
H2855       H  0.71783700  0.65305387  0.19493322     0.18100
C2856       C  0.68004461  0.64369554  0.13531726    -0.25900
C2857       C  0.67056183  0.63483325  0.12138731     0.36100
C2858       C  0.65229935  0.62969890  0.12416313    -0.19900
C2859       C  0.64414695  0.63338257  0.14095910    -0.25200
C2860       C  0.65367515  0.64218728  0.15484515     0.27500
H2861       H  0.69396480  0.64777235  0.13319995     0.13300
N2862       N  0.67953651  0.63082949  0.10460441    -0.82500
H2863       H  0.63019104  0.62953423  0.14323699     0.18100
N2864       N  0.64507485  0.64585407  0.17190275    -0.81100
H2865       H  0.69277246  0.63580618  0.10467871     0.33700
H2866       H  0.68055158  0.61676444  0.10357611     0.38200
H2867       H  0.63170386  0.64125434  0.17184129     0.33700
H2868       H  0.65187790  0.63840143  0.18180452     0.30400
H2869       H  0.71477705  0.62806526  0.17679410     0.33700
H2870       H  0.69315736  0.62258653  0.17266933     0.30400
H2871       H  0.68960082  0.71110302  0.18570542     0.38300
H2872       H  0.66791395  0.70578624  0.18191332     0.33700
C2873       C  0.66139569  0.62535679  0.90077487    -0.20000
C2874       C  0.67839662  0.63346881  0.90434168     0.36200
C2875       C  0.68738083  0.64294821  0.89045515    -0.26000
C2876       C  0.67992829  0.64420040  0.87308904     0.02700
C2877       C  0.66305082  0.63624667  0.86946953     0.27500
C2878       C  0.65394361  0.62698386  0.88331586    -0.25100
N2879       N  0.68677212  0.63164522  0.92178247    -0.82500
H2880       H  0.70046949  0.64901673  0.89302670     0.13300
C2881       C  0.69021247  0.65320108  0.85847297     0.02600
N2882       N  0.65543933  0.63727802  0.85160403    -0.81100
H2883       H  0.64094280  0.62091641  0.88036387     0.18100
C2884       C  0.70152303  0.64278103  0.84741668    -0.25900
C2885       C  0.71084937  0.65054105  0.83275152     0.36100
C2886       C  0.70878123  0.66926256  0.82908809    -0.19900
C2887       C  0.69747695  0.67962720  0.84044562    -0.25200
C2888       C  0.68822330  0.67179609  0.85508303     0.27500
H2889       H  0.70290273  0.62845143  0.85016149     0.13300
N2890       N  0.72231322  0.63941143  0.82165285    -0.82500
H2891       H  0.69594749  0.69399669  0.83805692     0.18100
N2892       N  0.67699508  0.68267758  0.86666232    -0.81100
H2893       H  0.72282507  0.62619136  0.82664032     0.33700
H2894       H  0.71635902  0.63862501  0.80885714     0.38200
H2895       H  0.67723149  0.69619826  0.86253547     0.33700
H2896       H  0.66365331  0.67826066  0.86516877     0.30400
H2897       H  0.64308442  0.63042584  0.85105789     0.33700
H2898       H  0.65261817  0.65085706  0.84888658     0.30400
H2899       H  0.68995585  0.61798199  0.92355555     0.38300
H2900       H  0.69903123  0.63867884  0.92219457     0.33700
C2901       C  0.64817901  0.60844259  0.96468000    -0.20000
C2902       C  0.64507050  0.59389555  0.97675274     0.36200
C2903       C  0.64507121  0.59706384  0.99546016    -0.26000
C2904       C  0.64851851  0.61428191  0.00246565     0.02700
C2905       C  0.65299650  0.62854007  0.99064446     0.27500
C2906       C  0.65279701  0.62548212  0.97180521    -0.25100
N2907       N  0.64181945  0.57594720  0.97000677    -0.82500
H2908       H  0.64197874  0.58610381  0.00468762     0.13300
C2909       C  0.64594428  0.61709748  0.02213571     0.02600
N2910       N  0.65762020  0.64600994  0.99779778    -0.81100
H2911       H  0.65554736  0.63660631  0.96268303     0.18100
C2912       C  0.66005715  0.61306308  0.03414788    -0.25900
C2913       C  0.65705187  0.61269908  0.05296833     0.36100
C2914       C  0.63961719  0.61651960  0.05977017    -0.19900
C2915       C  0.62563937  0.62091093  0.04773174    -0.25200
C2916       C  0.62864499  0.62131133  0.02897221     0.27500
H2917       H  0.67321334  0.60946453  0.02876943     0.13300
N2918       N  0.67136362  0.60763450  0.06510566    -0.82500
H2919       H  0.61223975  0.62370230  0.05299849     0.18100
N2920       N  0.61401093  0.62513132  0.01675206    -0.81100
H2921       H  0.68330856  0.60516339  0.05794075     0.33700
H2922       H  0.66770774  0.59540343  0.07118595     0.38200
H2923       H  0.60204789  0.62751755  0.02391714     0.33700
H2924       H  0.61707783  0.63714370  0.00997868     0.30400
H2925       H  0.66080361  0.65494658  0.98731557     0.33700
H2926       H  0.64618981  0.65126178  0.00424853     0.30400
H2927       H  0.65359352  0.57167711  0.96342400     0.38300
H2928       H  0.63963168  0.56689447  0.98064294     0.33700
C2929       C  0.17736931  0.66839623  0.69959533    -0.20000
C2930       C  0.17001715  0.67326838  0.68255390     0.36200
C2931       C  0.15486379  0.66388238  0.67589044    -0.26000
C2932       C  0.14717734  0.64954826  0.68560486     0.02700
C2933       C  0.15480377  0.64425286  0.70220331     0.27500
C2934       C  0.16977218  0.65367556  0.70899156    -0.25100
N2935       N  0.17768631  0.68778779  0.67214780    -0.82500
H2936       H  0.14912116  0.66759101  0.66292934     0.13300
C2937       C  0.13165508  0.63956587  0.67786678     0.02600
N2938       N  0.14715196  0.62943041  0.71220150    -0.81100
H2939       H  0.17530481  0.64962144  0.72193009     0.18100
C2940       C  0.13388533  0.62126663  0.67361786    -0.25900
C2941       C  0.11972630  0.61119278  0.66608696     0.36100
C2942       C  0.10302703  0.61972959  0.66232948    -0.19900
C2943       C  0.10063263  0.63798817  0.66705683    -0.25200
C2944       C  0.11482368  0.64800740  0.67483128     0.27500
H2945       H  0.14681051  0.61483254  0.67616672     0.13300
N2946       N  0.12222925  0.59227728  0.66238836    -0.82500
H2947       H  0.08783444  0.64456698  0.66427617     0.18100
N2948       N  0.11228344  0.66668655  0.67958387    -0.81100
H2949       H  0.13532486  0.58815728  0.66578702     0.33700
H2950       H  0.11341459  0.58510496  0.67080393     0.38200
H2951       H  0.09915193  0.67087409  0.67641367     0.33700
H2952       H  0.11357416  0.66774084  0.69362447     0.30400
H2953       H  0.15442626  0.62713475  0.72410434     0.33700
H2954       H  0.13408029  0.63318133  0.71609736     0.30400
H2955       H  0.19047797  0.68358475  0.66780617     0.38300
H2956       H  0.17011390  0.69010223  0.66043391     0.33700
C2957       C  0.88088381  0.61533543  0.66805958    -0.20000
C2958       C  0.86484340  0.61981775  0.65865086     0.36200
C2959       C  0.85244313  0.63185665  0.66656672    -0.26000
C2960       C  0.85585005  0.63951031  0.68353374     0.02700
C2961       C  0.87193791  0.63536889  0.69279164     0.27500
C2962       C  0.88430076  0.62331423  0.68496809    -0.25100
N2963       N  0.86129134  0.61237795  0.64105954    -0.82500
H2964       H  0.83999382  0.63519024  0.65958770     0.13300
C2965       C  0.84202271  0.65108208  0.69202135     0.02600
N2966       N  0.87552535  0.64333073  0.71016657    -0.81100
H2967       H  0.89657960  0.61996879  0.69223144     0.18100
C2968       C  0.83218519  0.64413066  0.70659752    -0.25900
C2969       C  0.81919189  0.65466888  0.71550692     0.36100
C2970       C  0.81647362  0.67280438  0.71006303    -0.19900
C2971       C  0.82602287  0.67955394  0.69504288    -0.25200
C2972       C  0.83876038  0.66879792  0.68590502     0.27500
H2973       H  0.83459810  0.63033625  0.71092443     0.13300
N2974       N  0.80859020  0.64691162  0.72984984    -0.82500
H2975       H  0.82385630  0.69336809  0.69066878     0.18100
N2976       N  0.84851601  0.67579254  0.67060712    -0.81100
H2977       H  0.81239471  0.63349859  0.73219925     0.33700
H2978       H  0.79513795  0.64656766  0.72549124     0.38200
H2979       H  0.84440975  0.68901638  0.66774425     0.33700
H2980       H  0.86218694  0.67646285  0.67415962     0.30400
H2981       H  0.88789074  0.63874808  0.71527567     0.33700
H2982       H  0.87684849  0.65727923  0.70828205     0.30400
H2983       H  0.87116507  0.61734797  0.63223844     0.38300
H2984       H  0.84882754  0.61690220  0.63614309     0.33700
C2985       C  0.94436408  0.59769919  0.66052747    -0.20000
C2986       C  0.95704525  0.58363574  0.66286958     0.36200
C2987       C  0.97557430  0.58769146  0.66269001    -0.26000
C2988       C  0.98161051  0.60547663  0.66025507     0.02700
C2989       C  0.96900206  0.61967741  0.65889821     0.27500
C2990       C  0.95042148  0.61566144  0.65916359    -0.25100
N2991       N  0.95105151  0.56528997  0.66519170    -0.82500
H2992       H  0.98540151  0.57687065  0.66382364     0.13300
C2993       C  0.00114058  0.60854593  0.65742984     0.02600
N2994       N  0.97515901  0.63798562  0.65678422    -0.81100
H2995       H  0.94067853  0.62648197  0.65747997     0.18100
C2996       C  0.00729503  0.61215596  0.63987309    -0.25900
C2997       C  0.02585619  0.61205178  0.63586066     0.36100
C2998       C  0.03840863  0.60853059  0.64977052    -0.19900
C2999       C  0.03228023  0.60601245  0.66755789    -0.25200
C3000       C  0.01367201  0.60578561  0.67149199     0.27500
H3001       H  0.99753846  0.61422521  0.62913472     0.13300
N3002       N  0.03202512  0.61509972  0.61767434    -0.82500
H3003       H  0.04197939  0.60327341  0.67819304     0.18100
N3004       N  0.00737982  0.60213410  0.68951666    -0.81100
H3005       H  0.02106582  0.61734742  0.60902915     0.33700
H3006       H  0.03966437  0.62699474  0.61770052     0.38200
H3007       H  0.01831117  0.60018144  0.69826620     0.33700
H3008       H  0.00053321  0.61364447  0.69406576     0.30400
H3009       H  0.96415814  0.64682984  0.65584519     0.33700
H3010       H  0.98217393  0.64149942  0.66854260     0.30400
H3011       H  0.94381356  0.56468329  0.67732757     0.38300
H3012       H  0.96210282  0.55657741  0.66662268     0.33700
C3013       C  0.71075746  0.14789263  0.69366149    -0.20000
C3014       C  0.69529827  0.13896246  0.70070485     0.36200
C3015       C  0.68648531  0.12581199  0.69021937    -0.26000
C3016       C  0.69291019  0.12086836  0.67308821     0.02700
C3017       C  0.70792084  0.13006787  0.66574980     0.27500
C3018       C  0.71656925  0.14354706  0.67602650    -0.25100
N3019       N  0.68856849  0.14303755  0.71848723    -0.82500
H3020       H  0.67471838  0.11897006  0.69565800     0.13300
C3021       C  0.68404642  0.10558445  0.66342773     0.02600
N3022       N  0.71458279  0.12541872  0.64807867    -0.81100
H3023       H  0.72826589  0.15030681  0.67035728     0.18100
C3024       C  0.67690911  0.10821550  0.64605542    -0.25900
C3025       C  0.66783343  0.09421003  0.63697318     0.36100
C3026       C  0.66564484  0.07719318  0.64540521    -0.19900
C3027       C  0.67313175  0.07449838  0.66265230    -0.25200
C3028       C  0.68232310  0.08845859  0.67171596     0.27500
H3029       H  0.67818727  0.12129342  0.63957248     0.13300
N3030       N  0.66111266  0.09729342  0.61907610    -0.82500
H3031       H  0.67154390  0.06152717  0.66926532     0.18100
N3032       N  0.68989651  0.08533349  0.68935018    -0.81100
H3033       H  0.65205815  0.10814691  0.61957724     0.33700
H3034       H  0.67200395  0.10104258  0.61086584     0.38200
H3035       H  0.68732414  0.07210850  0.69362816     0.33700
H3036       H  0.70394105  0.08658803  0.68825529     0.30400
H3037       H  0.72562598  0.13353836  0.64460089     0.33700
H3038       H  0.71936087  0.11212455  0.64865084     0.30400
H3039       H  0.69764209  0.13746283  0.72778613     0.38300
H3040       H  0.67621656  0.13654444  0.72077480     0.33700
C3041       C  0.65923476  0.85384497  0.66363427    -0.20000
C3042       C  0.64897280  0.83870382  0.66933189     0.36200
C3043       C  0.65732903  0.82500422  0.67951836    -0.26000
C3044       C  0.67563572  0.82614181  0.68421055     0.02700
C3045       C  0.68577194  0.84141900  0.67905067     0.27500
C3046       C  0.67746234  0.85515719  0.66885747    -0.25100
N3047       N  0.63011025  0.83729534  0.66482395    -0.82500
H3048       H  0.64959037  0.81329104  0.68372420     0.13300
C3049       C  0.68404676  0.81124930  0.69462870     0.02600
N3050       N  0.70450149  0.84280404  0.68407842    -0.81100
H3051       H  0.68540803  0.86668016  0.66453940     0.18100
C3052       C  0.69709655  0.80028252  0.68630251    -0.25900
C3053       C  0.70577826  0.78637786  0.69593615     0.36100
C3054       C  0.70138185  0.78355058  0.71432725    -0.19900
C3055       C  0.68789032  0.79421024  0.72243992    -0.25200
C3056       C  0.67927534  0.80813076  0.71280157     0.27500
H3057       H  0.70050682  0.80263031  0.67224269     0.13300
N3058       N  0.71892986  0.77507977  0.68710447    -0.82500
H3059       H  0.68452199  0.79211220  0.73654889     0.18100
N3060       N  0.66598784  0.81938410  0.72147248    -0.81100
H3061       H  0.72062547  0.77899132  0.67362306     0.33700
H3062       H  0.71377308  0.76191695  0.68687211     0.38200
H3063       H  0.66400046  0.81531382  0.73486662     0.33700
H3064       H  0.67118471  0.83252300  0.72197548     0.30400
H3065       H  0.71009300  0.85481202  0.67914060     0.33700
H3066       H  0.70508685  0.84357015  0.69818448     0.30400
H3067       H  0.62335565  0.84786988  0.67135329     0.38300
H3068       H  0.62462844  0.82527817  0.66986580     0.33700
C3069       C  0.65698049  0.91643798  0.63959763    -0.20000
C3070       C  0.66018314  0.92668555  0.62377929     0.36200
C3071       C  0.66168181  0.94561594  0.62499488    -0.26000
C3072       C  0.65990505  0.95448649  0.64165514     0.02700
C3073       C  0.65770474  0.94423063  0.65756436     0.27500
C3074       C  0.65646194  0.92526016  0.65641421    -0.25100
N3075       N  0.66146042  0.91785292  0.60650154    -0.82500
H3076       H  0.66337075  0.95357326  0.61280551     0.13300
C3077       C  0.65788553  0.97445439  0.64186980     0.02600
N3078       N  0.65602956  0.95322747  0.67471041    -0.81100
H3079       H  0.65402597  0.91744657  0.66856491     0.18100
C3080       C  0.64064672  0.98168249  0.64496149    -0.25900
C3081       C  0.63743810  0.00027882  0.64336401     0.36100
C3082       C  0.65169939  0.01202690  0.63870216    -0.19900
C3083       C  0.66921603  0.00494618  0.63653251    -0.25200
C3084       C  0.67242162  0.98617258  0.63793757     0.27500
H3085       H  0.62946184  0.97274038  0.64810000     0.13300
N3086       N  0.61961300  0.00720620  0.64647904    -0.82500
H3087       H  0.68021693  0.01395184  0.63298426     0.18100
N3088       N  0.69021847  0.97890907  0.63504806    -0.81100
H3089       H  0.61577004  0.00371301  0.65962959     0.33700
H3090       H  0.61078154  0.00076449  0.63751614     0.38200
H3091       H  0.69938649  0.98929221  0.63221244     0.33700
H3092       H  0.69442345  0.97299970  0.64718213     0.30400
H3093       H  0.65426727  0.94380456  0.68509962     0.33700
H3094       H  0.66826660  0.95983597  0.67725462     0.30400
H3095       H  0.67285388  0.90947775  0.60681738     0.38300
H3096       H  0.66367400  0.92730444  0.59622287     0.33700
C3097       C  0.95756285  0.91973363  0.39138515    -0.20000
C3098       C  0.94816349  0.92086870  0.40790663     0.36200
C3099       C  0.93569379  0.90733539  0.41238722    -0.26000
C3100       C  0.93267207  0.89273849  0.40068590     0.02700
C3101       C  0.94218699  0.89154520  0.38420809     0.27500
C3102       C  0.95458362  0.90515430  0.37967179    -0.25100
N3103       N  0.95137986  0.93575704  0.41999227    -0.82500
H3104       H  0.92823363  0.90816630  0.42498189     0.13300
C3105       C  0.91905204  0.87908692  0.40565868     0.02600
N3106       N  0.93926221  0.87647874  0.37227894    -0.81100
H3107       H  0.96206457  0.90437587  0.36708769     0.18100
C3108       C  0.90343001  0.87752496  0.39509453    -0.25900
C3109       C  0.88978632  0.86529974  0.39977261     0.36100
C3110       C  0.89179614  0.85440837  0.41527518    -0.19900
C3111       C  0.90750395  0.85594493  0.42583563    -0.25200
C3112       C  0.92126150  0.86813473  0.42108435     0.27500
H3113       H  0.90166895  0.88611374  0.38334915     0.13300
N3114       N  0.87361774  0.86450390  0.38914052    -0.82500
H3115       H  0.90910373  0.84750059  0.43770255     0.18100
N3116       N  0.93744406  0.86946317  0.43177908    -0.81100
H3117       H  0.87725646  0.86129397  0.37585810     0.33700
H3118       H  0.86773392  0.87736376  0.38908659     0.38200
H3119       H  0.93693153  0.86048120  0.44268375     0.33700
H3120       H  0.94828929  0.86536968  0.42366520     0.30400
H3121       H  0.94728587  0.87768844  0.36069326     0.33700
H3122       H  0.94358819  0.86481185  0.37899111     0.30400
H3123       H  0.96478863  0.93487233  0.42439821     0.38300
H3124       H  0.94325165  0.93464558  0.43151336     0.33700
C3125       C  0.11543601  0.85235966  0.39943853    -0.20000
C3126       C  0.09738565  0.85114429  0.40560456     0.36200
C3127       C  0.08494781  0.86464217  0.40076441    -0.26000
C3128       C  0.09022023  0.87921958  0.38990639     0.02700
C3129       C  0.10800296  0.88013368  0.38316993     0.27500
C3130       C  0.12046147  0.86658209  0.38790675    -0.25100
N3131       N  0.09177767  0.83623538  0.41674533    -0.82500
H3132       H  0.07116720  0.86401572  0.40574008     0.13300
C3133       C  0.07713273  0.89387803  0.38647074     0.02600
N3134       N  0.11337246  0.89502506  0.37189817    -0.81100
H3135       H  0.13429059  0.86746644  0.38312043     0.18100
C3136       C  0.07843766  0.90985415  0.39657264    -0.25900
C3137       C  0.06537203  0.92353087  0.39487072     0.36100
C3138       C  0.05114263  0.92135230  0.38235507    -0.19900
C3139       C  0.05014203  0.90551349  0.37191865    -0.25200
C3140       C  0.06290389  0.89161130  0.37404684     0.27500
H3141       H  0.08933247  0.91133584  0.40626019     0.13300
N3142       N  0.06616816  0.93936764  0.40612459    -0.82500
H3143       H  0.03905837  0.90383214  0.36248351     0.18100
N3144       N  0.06129631  0.87505546  0.36399234    -0.81100
H3145       H  0.07746872  0.93886397  0.41460455     0.33700
H3146       H  0.05479260  0.93923354  0.41453573     0.38200
H3147       H  0.04990678  0.87543591  0.35562356     0.33700
H3148       H  0.07256143  0.87408716  0.35549330     0.30400
H3149       H  0.12697186  0.89378891  0.36820303     0.33700
H3150       H  0.10585173  0.89426744  0.35995295     0.30400
H3151       H  0.09299038  0.82444789  0.40902862     0.38300
H3152       H  0.07811245  0.83743883  0.42020272     0.33700
C3153       C  0.88950743  0.08149853  0.39690114    -0.20000
C3154       C  0.90626686  0.08045110  0.40608008     0.36200
C3155       C  0.91874108  0.06696070  0.40130368    -0.26000
C3156       C  0.91498998  0.05470960  0.38738816     0.02700
C3157       C  0.89867785  0.05614535  0.37774398     0.27500
C3158       C  0.88609988  0.06958976  0.38247105    -0.25100
N3159       N  0.91062749  0.09312284  0.42014309    -0.82500
H3160       H  0.93142590  0.06585310  0.40856617     0.13300
C3161       C  0.92788233  0.03979324  0.38405398     0.02600
N3162       N  0.89467902  0.04365667  0.36350067    -0.81100
H3163       H  0.87336008  0.07027093  0.37526331     0.18100
C3164       C  0.92907029  0.02613161  0.39715112    -0.25900
C3165       C  0.94200608  0.01238114  0.39573710     0.36100
C3166       C  0.95377912  0.01199996  0.38080013    -0.19900
C3167       C  0.95239377  0.02543231  0.36746213    -0.25200
C3168       C  0.93971485  0.03947195  0.36897446     0.27500
H3169       H  0.92019096  0.02643572  0.40882173     0.13300
N3170       N  0.94361724  0.99917595  0.40981112    -0.82500
H3171       H  0.96165549  0.02531171  0.35609365     0.18100
N3172       N  0.93988097  0.05346658  0.35547682    -0.81100
H3173       H  0.94616241  0.00596820  0.42194790     0.33700
H3174       H  0.93119827  0.99253101  0.41104230     0.38200
H3175       H  0.93612086  0.04759557  0.34318131     0.33700
H3176       H  0.93043801  0.06357986  0.35824519     0.30400
H3177       H  0.88265608  0.03697328  0.36677562     0.33700
H3178       H  0.89247093  0.05107250  0.35167101     0.30400
H3179       H  0.91142924  0.10593836  0.41423238     0.38300
H3180       H  0.92338190  0.09037802  0.42560111     0.33700
C3181       C  0.10355657  0.08987719  0.39766343    -0.20000
C3182       C  0.10615881  0.08029005  0.38122923     0.36200
C3183       C  0.09421435  0.06627481  0.37661516    -0.26000
C3184       C  0.08003442  0.06140239  0.38813600     0.02700
C3185       C  0.07706133  0.07116691  0.40420684     0.27500
C3186       C  0.08885867  0.08527279  0.40882848    -0.25100
N3187       N  0.12120156  0.08428317  0.36956021    -0.82500
H3188       H  0.09640349  0.05858143  0.36432904     0.13300
C3189       C  0.06926252  0.04513295  0.38395595     0.02600
N3190       N  0.06214914  0.06656252  0.41581983    -0.81100
H3191       H  0.08655711  0.09266013  0.42127192     0.18100
C3192       C  0.07041002  0.03029839  0.39567447    -0.25900
C3193       C  0.05981512  0.01484711  0.39289477     0.36100
C3194       C  0.04798204  0.01424641  0.37795299    -0.19900
C3195       C  0.04750692  0.02873847  0.36569469    -0.25200
C3196       C  0.05789652  0.04434415  0.36869534     0.27500
H3197       H  0.07934936  0.03098472  0.40726643     0.13300
N3198       N  0.06023500  0.00026090  0.40574839    -0.82500
H3199       H  0.03820783  0.02824633  0.35438136     0.18100
N3200       N  0.05647261  0.05961095  0.35675449    -0.81100
H3201       H  0.06874935  0.00343394  0.41657755     0.33700
H3202       H  0.06605748  0.98907775  0.39937370     0.38200
H3203       H  0.04745010  0.05683733  0.34622922     0.33700
H3204       H  0.05088323  0.07030325  0.36414098     0.30400
H3205       H  0.06189195  0.07497260  0.42718516     0.33700
H3206       H  0.05021902  0.06907899  0.40865792     0.30400
H3207       H  0.13300349  0.08059741  0.37642096     0.38300
H3208       H  0.12075407  0.07635077  0.35786130     0.33700
C3209       C  0.95724252  0.92363369  0.62506284    -0.20000
C3210       C  0.95686617  0.90891851  0.63717484     0.36200
C3211       C  0.94383065  0.89527753  0.63484467    -0.26000
C3212       C  0.93101132  0.89637818  0.62090796     0.02700
C3213       C  0.93086930  0.91151219  0.60933479     0.27500
C3214       C  0.94403333  0.92498579  0.61151168    -0.25100
N3215       N  0.96989022  0.90780551  0.65154884    -0.82500
H3216       H  0.94374545  0.88365571  0.64376419     0.13300
C3217       C  0.91845878  0.88113115  0.61779197     0.02600
N3218       N  0.91762191  0.91289328  0.59517095    -0.81100
H3219       H  0.94432140  0.93639279  0.60231627     0.18100
C3220       C  0.89986307  0.88359708  0.62063661    -0.25900
C3221       C  0.88748584  0.86978783  0.61649747     0.36100
C3222       C  0.89390612  0.85344476  0.60909559    -0.19900
C3223       C  0.91249517  0.85086530  0.60649195    -0.25200
C3224       C  0.92489955  0.86455303  0.61089886     0.27500
H3225       H  0.89502886  0.89640819  0.62586820     0.13300
N3226       N  0.86840046  0.87254250  0.61904173    -0.82500
H3227       H  0.91728248  0.83823494  0.60079033     0.18100
N3228       N  0.94395864  0.86187417  0.60806930    -0.81100
H3229       H  0.86588922  0.88553834  0.62401770     0.33700
H3230       H  0.86406996  0.86353995  0.62904128     0.38200
H3231       H  0.94646418  0.84889246  0.60305331     0.33700
H3232       H  0.94814202  0.87094944  0.59806797     0.30400
H3233       H  0.91928778  0.92494188  0.58796448     0.33700
H3234       H  0.91998990  0.90235873  0.58603839     0.30400
H3235       H  0.96762622  0.91876104  0.66020023     0.38300
H3236       H  0.96782111  0.89610233  0.65920284     0.33700
C3237       C  0.95367307  0.01500859  0.61599440    -0.20000
C3238       C  0.95165760  0.03152927  0.62548713     0.36200
C3239       C  0.93804881  0.04359811  0.62023887    -0.26000
C3240       C  0.92614987  0.03934725  0.60612373     0.02700
C3241       C  0.92740671  0.02248310  0.59740411     0.27500
C3242       C  0.94131581  0.01053991  0.60228588    -0.25100
N3243       N  0.96296093  0.03641389  0.64052837    -0.82500
H3244       H  0.93680859  0.05646697  0.62715047     0.13300
C3245       C  0.91267603  0.05288304  0.60032805     0.02600
N3246       N  0.91461240  0.01766758  0.58358681    -0.81100
H3247       H  0.94274137  0.99778815  0.59519520     0.18100
C3248       C  0.91472984  0.06123609  0.58345333    -0.25900
C3249       C  0.90255238  0.07460103  0.57764069     0.36100
C3250       C  0.88783484  0.07941784  0.58888005    -0.19900
C3251       C  0.88589879  0.07100812  0.60582905    -0.25200
C3252       C  0.89814871  0.05771575  0.61162189     0.27500
H3253       H  0.92609283  0.05751979  0.57495785     0.13300
N3254       N  0.90534976  0.08355470  0.56060935    -0.82500
H3255       H  0.87462029  0.07460169  0.61447979     0.18100
N3256       N  0.89586906  0.04898877  0.62884213    -0.81100
H3257       H  0.91670587  0.07830881  0.55400010     0.33700
H3258       H  0.90820457  0.09712879  0.56335470     0.38200
H3259       H  0.88452100  0.05411971  0.63555352     0.33700
H3260       H  0.89327638  0.03530780  0.62638638     0.30400
H3261       H  0.91741293  0.00476153  0.57852921     0.33700
H3262       H  0.90185597  0.01693663  0.58966564     0.30400
H3263       H  0.97177641  0.02599504  0.64411032     0.38300
H3264       H  0.97085612  0.04745245  0.63657506     0.33700
C3265       C  0.11945941  0.86167522  0.59194661    -0.20000
C3266       C  0.12045854  0.87124622  0.60843034     0.36200
C3267       C  0.10695591  0.88383124  0.61289635    -0.26000
C3268       C  0.09236697  0.88710555  0.60122279     0.02700
C3269       C  0.09137019  0.87768391  0.58464939     0.27500
C3270       C  0.10499308  0.86522104  0.58012611    -0.25100
N3271       N  0.13537504  0.86861953  0.62048923    -0.82500
H3272       H  0.10798020  0.89124924  0.62549487     0.13300
C3273       C  0.07843864  0.90068613  0.60633700     0.02600
N3274       N  0.07638984  0.88061835  0.57260371    -0.81100
H3275       H  0.10403039  0.85790984  0.56746588     0.18100
C3276       C  0.07501543  0.91525246  0.59466934    -0.25900
C3277       C  0.06165051  0.92812361  0.59872663     0.36100
C3278       C  0.05178817  0.92662495  0.61499207    -0.19900
C3279       C  0.05545054  0.91231634  0.62688514    -0.25200
C3280       C  0.06856171  0.89919330  0.62263084     0.27500
H3281       H  0.08271725  0.91647471  0.58225743     0.13300
N3282       N  0.05788584  0.94262130  0.58632929    -0.82500
H3283       H  0.04775107  0.91120628  0.63930875     0.18100
N3284       N  0.07164399  0.88418372  0.63458731    -0.81100
H3285       H  0.04467744  0.94088890  0.58158765     0.33700
H3286       H  0.06637402  0.94184437  0.57504091     0.38200
H3287       H  0.06331947  0.88512203  0.64598638     0.33700
H3288       H  0.06782695  0.87241701  0.62774269     0.30400
H3289       H  0.07774095  0.87273109  0.56094159     0.33700
H3290       H  0.06467981  0.87618125  0.57917584     0.30400
H3291       H  0.13021145  0.86459296  0.63302204     0.38300
H3292       H  0.14185589  0.88105920  0.62224836     0.33700
C3293       C  0.04823854  0.01882715  0.61200902    -0.20000
C3294       C  0.06032584  0.01680802  0.59736469     0.36200
C3295       C  0.07290510  0.03052908  0.59373801    -0.26000
C3296       C  0.07318203  0.04634220  0.60413570     0.02700
C3297       C  0.06089857  0.04857739  0.61852568     0.27500
C3298       C  0.04869676  0.03461322  0.62252956    -0.25100
N3299       N  0.05949375  0.00099714  0.58607386    -0.82500
H3300       H  0.08219823  0.02915405  0.58247855     0.13300
C3301       C  0.08548588  0.06106449  0.59891427     0.02600
N3302       N  0.06036109  0.06530047  0.62844365    -0.81100
H3303       H  0.03918118  0.03618051  0.63357322     0.18100
C3304       C  0.07995262  0.07309198  0.58540689    -0.25900
C3305       C  0.09100512  0.08758641  0.58019726     0.36100
C3306       C  0.10791467  0.09000399  0.58877830    -0.19900
C3307       C  0.11345531  0.07780557  0.60222848    -0.25200
C3308       C  0.10245499  0.06318471  0.60725362     0.27500
H3309       H  0.06688390  0.07120801  0.57903956     0.13300
N3310       N  0.08499674  0.09997627  0.56646789    -0.82500
H3311       H  0.12656522  0.07947572  0.60855905     0.18100
N3312       N  0.10863460  0.05021050  0.62034939    -0.81100
H3313       H  0.07236012  0.09611595  0.56143077     0.33700
H3314       H  0.08321551  0.11259945  0.57258623     0.38200
H3315       H  0.12163362  0.05350623  0.62483311     0.33700
H3316       H  0.10017598  0.05100930  0.63163740     0.30400
H3317       H  0.05014071  0.06494789  0.63821674     0.33700
H3318       H  0.07255789  0.06663016  0.63543509     0.30400
H3319       H  0.04693779  0.00104501  0.57957096     0.38300
H3320       H  0.06932284  0.00160123  0.57592019     0.33700
C3321       C  0.39996220  0.85384772  0.87927987    -0.20000
C3322       C  0.41119346  0.86909879  0.88217167     0.36200
C3323       C  0.40650564  0.88170005  0.89560382    -0.26000
C3324       C  0.39078036  0.87953100  0.90596647     0.02700
C3325       C  0.37916379  0.86486653  0.90257286     0.27500
C3326       C  0.38379206  0.85224966  0.88918469    -0.25100
N3327       N  0.42729417  0.87175051  0.87157122    -0.82500
H3328       H  0.41521704  0.89320504  0.89815824     0.13300
C3329       C  0.38701722  0.89229303  0.92088465     0.02600
N3330       N  0.36299786  0.86256157  0.91314256    -0.81100
H3331       H  0.37504030  0.84070776  0.88704578     0.18100
C3332       C  0.37163630  0.90335345  0.92010234    -0.25900
C3333       C  0.36776851  0.91568210  0.93394948     0.36100
C3334       C  0.37977033  0.91710720  0.94882542    -0.19900
C3335       C  0.39485101  0.90563945  0.94980650    -0.25200
C3336       C  0.39854653  0.89315596  0.93601843     0.27500
H3337       H  0.36263562  0.90246764  0.90857052     0.13300
N3338       N  0.35164792  0.92646379  0.93244263    -0.82500
H3339       H  0.40403979  0.90681610  0.96116200     0.18100
N3340       N  0.41402274  0.88143641  0.93720905    -0.81100
H3341       H  0.35340858  0.93531652  0.92156184     0.33700
H3342       H  0.34947748  0.93433128  0.94395662     0.38200
H3343       H  0.42116428  0.88384531  0.94916891     0.33700
H3344       H  0.40926410  0.86814537  0.93796177     0.30400
H3345       H  0.35587947  0.85110264  0.90892009     0.33700
H3346       H  0.36692551  0.86017682  0.92651304     0.30400
H3347       H  0.42328077  0.87382639  0.85817528     0.38300
H3348       H  0.43408230  0.88347626  0.87560857     0.33700
C3349       C  0.38508805  0.92015451  0.04185328    -0.20000
C3350       C  0.39981441  0.90816268  0.04056932     0.36200
C3351       C  0.40336733  0.89615452  0.05474115    -0.26000
C3352       C  0.39266471  0.89623111  0.07036312     0.02700
C3353       C  0.37796664  0.90828518  0.07183513     0.27500
C3354       C  0.37413409  0.91999387  0.05737264    -0.25100
N3355       N  0.41156299  0.90865472  0.02516850    -0.82500
H3356       H  0.41486339  0.88709672  0.05379933     0.13300
C3357       C  0.39797543  0.88446790  0.08550790     0.02600
N3358       N  0.36761236  0.90918570  0.08827799    -0.81100
H3359       H  0.36300288  0.92947804  0.05841005     0.18100
C3360       C  0.41149562  0.89045836  0.09731250    -0.25900
C3361       C  0.41785388  0.87932404  0.11129381     0.36100
C3362       C  0.41060345  0.86176537  0.11330829    -0.19900
C3363       C  0.39685978  0.85592010  0.10154219    -0.25200
C3364       C  0.39054831  0.86708235  0.08754660     0.27500
H3365       H  0.41712443  0.90387250  0.09553306     0.13300
N3366       N  0.43138379  0.88590977  0.12358453    -0.82500
H3367       H  0.39127934  0.84245751  0.10305184     0.18100
N3368       N  0.37714168  0.86063115  0.07502805    -0.81100
H3369       H  0.43538400  0.89900774  0.12008186     0.33700
H3370       H  0.42543341  0.88680186  0.13638590     0.38200
H3371       H  0.37342071  0.84735843  0.07816159     0.33700
H3372       H  0.36552203  0.86850902  0.07662540     0.30400
H3373       H  0.35765394  0.91918473  0.08732139     0.33700
H3374       H  0.36081367  0.89691273  0.08984379     0.30400
H3375       H  0.42466172  0.91144470  0.02970522     0.38300
H3376       H  0.41162400  0.89580527  0.01927222     0.33700
C3377       C  0.38307083  0.01137171  0.94608315    -0.20000
C3378       C  0.37187255  0.01297575  0.93060656     0.36200
C3379       C  0.37642573  0.02552853  0.91716292    -0.26000
C3380       C  0.39161203  0.03669431  0.91900176     0.02700
C3381       C  0.40244733  0.03552799  0.93459074     0.27500
C3382       C  0.39810148  0.02281314  0.94796484    -0.25100
N3383       N  0.35574061  0.00238993  0.92820045    -0.82500
H3384       H  0.36799612  0.02666683  0.90523009     0.13300
C3385       C  0.39609828  0.04964732  0.90452218     0.02600
N3386       N  0.41779600  0.04727013  0.93672849    -0.81100
H3387       H  0.40664129  0.02156988  0.95981030     0.18100
C3388       C  0.39000767  0.06752321  0.90595816    -0.25900
C3389       C  0.39473724  0.08045866  0.89288244     0.36100
C3390       C  0.40565866  0.07527580  0.87812527    -0.19900
C3391       C  0.41175290  0.05736643  0.87670939    -0.25200
C3392       C  0.40700159  0.04443007  0.88978912     0.27500
H3393       H  0.38179229  0.07141111  0.91746435     0.13300
N3394       N  0.38893245  0.09892025  0.89476124    -0.82500
H3395       H  0.42018244  0.05349429  0.86535203     0.18100
N3396       N  0.41314102  0.02604596  0.88820724    -0.81100
H3397       H  0.38102973  0.10048674  0.90638814     0.33700
H3398       H  0.40048631  0.10685417  0.89664161     0.38200
H3399       H  0.42085165  0.02438789  0.87646473     0.33700
H3400       H  0.42177572  0.02342679  0.89908546     0.30400
H3401       H  0.42420130  0.04485461  0.94909713     0.33700
H3402       H  0.42716136  0.04402089  0.92664095     0.30400
H3403       H  0.35291104  0.99441480  0.93948513     0.38300
H3404       H  0.35793184  0.99365073  0.91730068     0.33700
C3405       C  0.38345748  0.01445189  0.03850945    -0.20000
C3406       C  0.37196146  0.01636236  0.05358065     0.36200
C3407       C  0.37519196  0.03034560  0.06597900    -0.26000
C3408       C  0.38951175  0.04253011  0.06341607     0.02700
C3409       C  0.40066358  0.04094292  0.04788890     0.27500
C3410       C  0.39761596  0.02674041  0.03580222    -0.25100
N3411       N  0.35733907  0.00386740  0.05637653    -0.82500
H3412       H  0.36676770  0.03153249  0.07792148     0.13300
C3413       C  0.39335246  0.05574931  0.07787942     0.02600
N3414       N  0.41514340  0.05334577  0.04394154    -0.81100
H3415       H  0.40638978  0.02525568  0.02414060     0.18100
C3416       C  0.40974503  0.05439214  0.08722819    -0.25900
C3417       C  0.41408562  0.06654836  0.10102675     0.36100
C3418       C  0.40176850  0.08042641  0.10568221    -0.19900
C3419       C  0.38502825  0.08134475  0.09669485    -0.25200
C3420       C  0.38070782  0.06913763  0.08279457     0.27500
H3421       H  0.41926568  0.04378871  0.08374967     0.13300
N3422       N  0.43089527  0.06447637  0.11044014    -0.82500
H3423       H  0.37543684  0.09185408  0.10020804     0.18100
N3424       N  0.36364018  0.07033805  0.07356430    -0.81100
H3425       H  0.43122112  0.05153700  0.11612592     0.33700
H3426       H  0.44139635  0.06538265  0.10100381     0.38200
H3427       H  0.35580682  0.08083053  0.07891905     0.33700
H3428       H  0.36629204  0.07370190  0.06009107     0.30400
H3429       H  0.41242139  0.05920274  0.03136533     0.33700
H3430       H  0.41549828  0.06406557  0.05309296     0.30400
H3431       H  0.34823269  0.00548709  0.04568911     0.38300
H3432       H  0.35029122  0.00703354  0.06822607     0.33700
C3433       C  0.95040972  0.36041255  0.95461387    -0.20000
C3434       C  0.93732136  0.34649948  0.95328780     0.36200
C3435       C  0.92290656  0.34847072  0.94114404    -0.26000
C3436       C  0.92136173  0.36385635  0.93018035     0.02700
C3437       C  0.93459449  0.37756756  0.93125647     0.27500
C3438       C  0.94896712  0.37571444  0.94351668    -0.25100
N3439       N  0.93809363  0.33034928  0.96409321    -0.82500
H3440       H  0.91270574  0.33797671  0.94039035     0.13300
C3441       C  0.90563300  0.36574388  0.91789533     0.02600
N3442       N  0.93332078  0.39331354  0.91991813    -0.81100
H3443       H  0.95903987  0.38630714  0.94457708     0.18100
C3444       C  0.89406049  0.38055160  0.92013532    -0.25900
C3445       C  0.87985217  0.38373534  0.90806986     0.36100
C3446       C  0.87707237  0.37193104  0.89327097    -0.19900
C3447       C  0.88806762  0.35649089  0.89163937    -0.25200
C3448       C  0.90239019  0.35331960  0.90378217     0.27500
H3449       H  0.89622868  0.38987584  0.93123902     0.13300
N3450       N  0.86828607  0.39900817  0.91099088    -0.82500
H3451       H  0.88600218  0.34726875  0.88044758     0.18100
N3452       N  0.91395078  0.33784485  0.90155029    -0.81100
H3453       H  0.86245753  0.39778693  0.92381738     0.33700
H3454       H  0.87626389  0.41068094  0.91088080     0.38200
H3455       H  0.90970868  0.33000966  0.89057408     0.33700
H3456       H  0.92689974  0.34257087  0.89839086     0.30400
H3457       H  0.94405078  0.40216207  0.92245813     0.33700
H3458       H  0.93467766  0.38904822  0.90650457     0.30400
H3459       H  0.94941701  0.33017461  0.97250183     0.38300
H3460       H  0.93955794  0.31939957  0.95526782     0.33700
C3461       C  0.11497134  0.37389827  0.88682457    -0.20000
C3462       C  0.10162921  0.36129011  0.88160621     0.36200
C3463       C  0.08741513  0.35718075  0.89348821    -0.26000
C3464       C  0.08636808  0.36546045  0.91047391     0.02700
C3465       C  0.09967237  0.37798981  0.91581018     0.27500
C3466       C  0.11383556  0.38214049  0.90388850    -0.25100
N3467       N  0.10212025  0.35309791  0.86406038    -0.82500
H3468       H  0.07704946  0.34767410  0.88937405     0.13300
C3469       C  0.07095116  0.36153762  0.92245665     0.02600
N3470       N  0.09874158  0.38635880  0.93334536    -0.81100
H3471       H  0.12409226  0.39177367  0.90797467     0.18100
C3472       C  0.07287633  0.34847876  0.93602746    -0.25900
C3473       C  0.05932240  0.34608719  0.94906379     0.36100
C3474       C  0.04376226  0.35709401  0.94864735    -0.19900
C3475       C  0.04153107  0.36959833  0.93454763    -0.25200
C3476       C  0.05498677  0.37187117  0.92135548     0.27500
H3477       H  0.08514964  0.34049228  0.93678395     0.13300
N3478       N  0.06154358  0.33281773  0.96299255    -0.82500
H3479       H  0.02956705  0.37806418  0.93425160     0.18100
N3480       N  0.05271782  0.38486452  0.90707462    -0.81100
H3481       H  0.07343487  0.33578690  0.97004186     0.33700
H3482       H  0.06317752  0.32020666  0.95681203     0.38200
H3483       H  0.04008673  0.39115518  0.90806714     0.33700
H3484       H  0.06241274  0.39499377  0.90885124     0.30400
H3485       H  0.10972619  0.39504654  0.93528135     0.33700
H3486       H  0.08712942  0.39442239  0.93368654     0.30400
H3487       H  0.09008589  0.35631377  0.85736833     0.38300
H3488       H  0.10256705  0.33907150  0.86576675     0.33700
C3489       C  0.95700312  0.36634524  0.04853056    -0.20000
C3490       C  0.95255049  0.38362444  0.05520736     0.36200
C3491       C  0.94008015  0.38514139  0.06944755    -0.26000
C3492       C  0.93235326  0.36970205  0.07735871     0.02700
C3493       C  0.93741522  0.35238384  0.07107359     0.27500
C3494       C  0.94951091  0.35090299  0.05651221    -0.25100
N3495       N  0.96084155  0.39948897  0.04761545    -0.82500
H3496       H  0.93611185  0.39842988  0.07418089     0.13300
C3497       C  0.91818842  0.37192105  0.09142340     0.02600
N3498       N  0.93031052  0.33641137  0.07957275    -0.81100
H3499       H  0.95330937  0.33767766  0.05145950     0.18100
C3500       C  0.90123759  0.36385041  0.08868093    -0.25900
C3501       C  0.88709671  0.36635822  0.10102728     0.36100
C3502       C  0.88983730  0.37714949  0.11646796    -0.19900
C3503       C  0.90675505  0.38532359  0.11922316    -0.25200
C3504       C  0.92103947  0.38268615  0.10693980     0.27500
H3505       H  0.89878924  0.35593849  0.07658954     0.13300
N3506       N  0.86972843  0.35862883  0.09735495    -0.82500
H3507       H  0.90884978  0.39370679  0.13106084     0.18100
N3508       N  0.93838194  0.39087320  0.11013832    -0.81100
H3509       H  0.86525599  0.36355751  0.08488220     0.33700
H3510       H  0.87131939  0.34462838  0.09620097     0.38200
H3511       H  0.93817436  0.39846814  0.12206570     0.33700
H3512       H  0.94773590  0.38045230  0.11210622     0.30400
H3513       H  0.93535504  0.32477906  0.07330400     0.33700
H3514       H  0.93504383  0.33621139  0.09289262     0.30400
H3515       H  0.95638275  0.40076931  0.03427443     0.38300
H3516       H  0.95647404  0.41109210  0.05442254     0.33700
C3517       C  0.04978504  0.36699731  0.04229816    -0.20000
C3518       C  0.04865280  0.38173033  0.05431964     0.36200
C3519       C  0.06243021  0.38464834  0.06694825    -0.26000
C3520       C  0.07766646  0.37336722  0.06754938     0.02700
C3521       C  0.07917638  0.35891891  0.05514509     0.27500
C3522       C  0.06510426  0.35577000  0.04271857    -0.25100
N3523       N  0.03350843  0.39380266  0.05366609    -0.82500
H3524       H  0.06114311  0.39572846  0.07645849     0.13300
C3525       C  0.09150212  0.37656959  0.08172046     0.02600
N3526       N  0.09499972  0.34761441  0.05518664    -0.81100
H3527       H  0.06605019  0.34457262  0.03331072     0.18100
C3528       C  0.09530624  0.36282362  0.09418288    -0.25900
C3529       C  0.10710838  0.36578330  0.10871488     0.36100
C3530       C  0.11540168  0.38288814  0.11092946    -0.19900
C3531       C  0.11176339  0.39654760  0.09820489    -0.25200
C3532       C  0.09999287  0.39353847  0.08359843     0.27500
H3533       H  0.08864673  0.34982852  0.09293352     0.13300
N3534       N  0.11009958  0.35149836  0.12144643    -0.82500
H3535       H  0.11816106  0.40964963  0.09958621     0.18100
N3536       N  0.09657876  0.40764534  0.07066760    -0.81100
H3537       H  0.09761123  0.34775618  0.12693232     0.33700
H3538       H  0.11534888  0.34037849  0.11445677     0.38200
H3539       H  0.10377831  0.41933958  0.07402148     0.33700
H3540       H  0.10154343  0.40326689  0.05816868     0.30400
H3541       H  0.09399607  0.33763296  0.04522237     0.33700
H3542       H  0.10604824  0.35571742  0.05168585     0.30400
H3543       H  0.02726206  0.39373573  0.06635647     0.38300
H3544       H  0.03838802  0.40684907  0.05126742     0.33700
C3545       C  0.58907481  0.84622487  0.89394519    -0.20000
C3546       C  0.57976721  0.84739379  0.91059565     0.36200
C3547       C  0.58427706  0.86119653  0.92282834    -0.26000
C3548       C  0.59775460  0.87389657  0.91869772     0.02700
C3549       C  0.60725084  0.87254572  0.90220574     0.27500
C3550       C  0.60297461  0.85857100  0.89011394    -0.25100
N3551       N  0.56590567  0.83451544  0.91508530    -0.82500
H3552       H  0.57724793  0.86209310  0.93566231     0.13300
C3553       C  0.60167282  0.88864981  0.93168674     0.02600
N3554       N  0.62088051  0.88563528  0.89762009    -0.81100
H3555       H  0.61008378  0.85773666  0.87732121     0.18100
C3556       C  0.61938599  0.89085009  0.93818788    -0.25900
C3557       C  0.62361465  0.90472568  0.95042019     0.36100
C3558       C  0.60984862  0.91652473  0.95618862    -0.19900
C3559       C  0.59216448  0.91438560  0.94977455    -0.25200
C3560       C  0.58791005  0.90055890  0.93750844     0.27500
H3561       H  0.62988691  0.88160911  0.93380089     0.13300
N3562       N  0.64179684  0.90703097  0.95689528    -0.82500
H3563       H  0.58168327  0.92352820  0.95442540     0.18100
N3564       N  0.56974094  0.89861940  0.93085445    -0.81100
H3565       H  0.65038975  0.89743041  0.95105703     0.33700
H3566       H  0.64175971  0.90448137  0.97079854     0.38200
H3567       H  0.56125054  0.90837065  0.93659736     0.33700
H3568       H  0.56999217  0.90113418  0.91694566     0.30400
H3569       H  0.62662091  0.88268092  0.88503525     0.33700
H3570       H  0.61448646  0.89818179  0.89632046     0.30400
H3571       H  0.57205864  0.82182844  0.91615646     0.38300
H3572       H  0.56031240  0.83739435  0.92775489     0.33700
C3573       C  0.61363546  0.00922642  0.95037700    -0.20000
C3574       C  0.59881451  0.00800158  0.93851812     0.36200
C3575       C  0.59669220  0.02085000  0.92477957    -0.26000
C3576       C  0.60900072  0.03513690  0.92281283     0.02700
C3577       C  0.62388312  0.03649943  0.93481981     0.27500
C3578       C  0.62610223  0.02337762  0.94832540    -0.25100
N3579       N  0.58563962  0.99397906  0.94073835    -0.82500
H3580       H  0.58514020  0.01989600  0.91580682     0.13300
C3581       C  0.60511462  0.04896649  0.90890973     0.02600
N3582       N  0.63651255  0.05127771  0.93425467    -0.81100
H3583       H  0.63739288  0.02447257  0.95760443     0.18100
C3584       C  0.59091035  0.06110506  0.91200415    -0.25900
C3585       C  0.58618000  0.07412555  0.89904055     0.36100
C3586       C  0.59581268  0.07489295  0.88254174    -0.19900
C3587       C  0.61019478  0.06282186  0.87955385    -0.25200
C3588       C  0.61483737  0.04970761  0.89253009     0.27500
H3589       H  0.58351134  0.06039751  0.92464436     0.13300
N3590       N  0.57181984  0.08671749  0.90270035    -0.82500
H3591       H  0.61752393  0.06333697  0.86686953     0.18100
N3592       N  0.62888803  0.03675732  0.88889337    -0.81100
H3593       H  0.56602255  0.08418902  0.91535009     0.33700
H3594       H  0.57755224  0.09962126  0.90339854     0.38200
H3595       H  0.63427473  0.03878616  0.87597554     0.33700
H3596       H  0.63941974  0.03909674  0.89800457     0.30400
H3597       H  0.64920896  0.04595769  0.93099766     0.33700
H3598       H  0.63326803  0.06063420  0.92421440     0.30400
H3599       H  0.58504396  0.98657604  0.92870763     0.38300
H3600       H  0.57303101  0.00005781  0.94278361     0.33700
C3601       C  0.60586473  0.85461435  0.11770310    -0.20000
C3602       C  0.60640089  0.84970461  0.09932835     0.36200
C3603       C  0.61048495  0.86293984  0.08631612    -0.26000
C3604       C  0.61389387  0.88089348  0.09147477     0.02700
C3605       C  0.61389437  0.88559400  0.10995619     0.27500
C3606       C  0.60987807  0.87234898  0.12292359    -0.25100
N3607       N  0.60225818  0.83148348  0.09398561    -0.82500
H3608       H  0.61040876  0.85942697  0.07208810     0.13300
C3609       C  0.61612842  0.89490068  0.07735691     0.02600
N3610       N  0.61761098  0.90387885  0.11539632    -0.81100
H3611       H  0.60930334  0.87597065  0.13711745     0.18100
C3612       C  0.60329057  0.90882804  0.07622065    -0.25900
C3613       C  0.60428934  0.92190119  0.06252168     0.36100
C3614       C  0.61857572  0.92114600  0.04991731    -0.19900
C3615       C  0.63158165  0.90738188  0.05118071    -0.25200
C3616       C  0.63046692  0.89417572  0.06480004     0.27500
H3617       H  0.59220352  0.90920468  0.08581034     0.13300
N3618       N  0.59072339  0.93577084  0.06112968    -0.82500
H3619       H  0.64245528  0.90685756  0.04136051     0.18100
N3620       N  0.64373051  0.88000544  0.06591557    -0.81100
H3621       H  0.58118994  0.93447508  0.07149858     0.33700
H3622       H  0.58377823  0.93376522  0.04898119     0.38200
H3623       H  0.65331933  0.88135368  0.05560400     0.33700
H3624       H  0.65066141  0.88159750  0.07813211     0.30400
H3625       H  0.61689300  0.90512511  0.12946347     0.33700
H3626       H  0.63096011  0.90677874  0.11173420     0.30400
H3627       H  0.61224681  0.82307105  0.09940956     0.38300
H3628       H  0.60305992  0.83014989  0.07992995     0.33700
C3629       C  0.61392735  0.01321258  0.04481887    -0.20000
C3630       C  0.62715072  0.02578518  0.05015720     0.36200
C3631       C  0.62245614  0.03938650  0.06253610    -0.26000
C3632       C  0.60489237  0.04035232  0.06971770     0.02700
C3633       C  0.59181994  0.02742990  0.06464062     0.27500
C3634       C  0.59647809  0.01400979  0.05212572    -0.25100
N3635       N  0.64510400  0.02482020  0.04275727    -0.82500
H3636       H  0.63241485  0.04939457  0.06644954     0.13300
C3637       C  0.60021813  0.05514077  0.08230599     0.02600
N3638       N  0.57390625  0.02803219  0.07221130    -0.81100
H3639       H  0.58645595  0.00419221  0.04788536     0.18100
C3640       C  0.58597587  0.06684110  0.07786242    -0.25900
C3641       C  0.58075748  0.08076551  0.08961657     0.36100
C3642       C  0.59009671  0.08302932  0.10611746    -0.19900
C3643       C  0.60466120  0.07159491  0.11032127    -0.25200
C3644       C  0.60969758  0.05751658  0.09865381     0.27500
H3645       H  0.57893874  0.06508697  0.06512901     0.13300
N3646       N  0.56618401  0.09270121  0.08475813    -0.82500
H3647       H  0.61177697  0.07329171  0.12301575     0.18100
N3648       N  0.62412818  0.04540309  0.10347633    -0.81100
H3649       H  0.56067799  0.08904792  0.07226034     0.33700
H3650       H  0.57162342  0.10565042  0.08315018     0.38200
H3651       H  0.62972927  0.04904492  0.11593467     0.33700
H3652       H  0.61852407  0.03253419  0.10516426     0.30400
H3653       H  0.56591578  0.01763203  0.06693312     0.33700
H3654       H  0.57504715  0.02561782  0.08609363     0.30400
H3655       H  0.65088237  0.01267339  0.04710788     0.38300
H3656       H  0.65315572  0.03519738  0.04798629     0.33700
C3657       C  0.95363406  0.58090242  0.95830115    -0.20000
C3658       C  0.95217258  0.56301841  0.95190099     0.36200
C3659       C  0.94010569  0.55913391  0.93777094    -0.26000
C3660       C  0.92978767  0.57286618  0.92967940     0.02700
C3661       C  0.93195949  0.59092856  0.93556407     0.27500
C3662       C  0.94367422  0.59472606  0.95004894    -0.25100
N3663       N  0.96303174  0.54892874  0.95976087    -0.82500
H3664       H  0.93845420  0.54528041  0.93330208     0.13300
C3665       C  0.91603597  0.56798907  0.91582497     0.02600
N3666       N  0.92232339  0.60530953  0.92672650    -0.81100
H3667       H  0.94517307  0.60848268  0.95486446     0.18100
C3668       C  0.89798273  0.57317561  0.91861683    -0.25900
C3669       C  0.88437327  0.56846273  0.90625293     0.36100
C3670       C  0.88887404  0.55816856  0.89082496    -0.19900
C3671       C  0.90684885  0.55269005  0.88813513    -0.25200
C3672       C  0.92054994  0.55772124  0.90034941     0.27500
H3673       H  0.89445145  0.58072058  0.93067752     0.13300
N3674       N  0.86593835  0.57376647  0.90950124    -0.82500
H3675       H  0.91026479  0.54485645  0.87622366     0.18100
N3676       N  0.93903173  0.55267938  0.89698566    -0.81100
H3677       H  0.85839700  0.56198852  0.91157001     0.33700
H3678       H  0.86493291  0.58135133  0.92139443     0.38200
H3679       H  0.94005673  0.54517701  0.88504175     0.33700
H3680       H  0.94639625  0.56457235  0.89493976     0.30400
H3681       H  0.92544420  0.61776032  0.93265160     0.33700
H3682       H  0.92692488  0.60591693  0.91336595     0.30400
H3683       H  0.95886589  0.54724168  0.97316408     0.38300
H3684       H  0.96068127  0.53661630  0.95322298     0.33700
C3685       C  0.94785295  0.58147121  0.05246033    -0.20000
C3686       C  0.94432487  0.56439770  0.06006380     0.36200
C3687       C  0.92938105  0.56232358  0.07153239    -0.26000
C3688       C  0.91785018  0.57694237  0.07528159     0.02700
C3689       C  0.92139604  0.59402515  0.06758434     0.27500
C3690       C  0.93652503  0.59615563  0.05632463    -0.25100
N3691       N  0.95564027  0.54919804  0.05567369    -0.82500
H3692       H  0.92670348  0.54926706  0.07762087     0.13300
C3693       C  0.90252106  0.57412552  0.08781304     0.02600
N3694       N  0.90943679  0.60898039  0.07095833    -0.81100
H3695       H  0.93928500  0.60915443  0.05015312     0.18100
C3696       C  0.90154990  0.58444501  0.10368802    -0.25900
C3697       C  0.88860561  0.58061819  0.11697036     0.36100
C3698       C  0.87654671  0.56607973  0.11443867    -0.19900
C3699       C  0.87703429  0.55624977  0.09821241    -0.25200
C3700       C  0.88975198  0.56030467  0.08473471     0.27500
H3701       H  0.91136030  0.59505541  0.10612174     0.13300
N3702       N  0.88839474  0.59092911  0.13336935    -0.82500
H3703       H  0.86754708  0.54527879  0.09611652     0.18100
N3704       N  0.88993775  0.55033999  0.06803722    -0.81100
H3705       H  0.90111780  0.58983644  0.13943953     0.33700
H3706       H  0.88629765  0.60449873  0.13000068     0.38200
H3707       H  0.87968487  0.54060501  0.06794438     0.33700
H3708       H  0.88697683  0.55943363  0.05762526     0.30400
H3709       H  0.91400043  0.62058010  0.06428728     0.33700
H3710       H  0.89687428  0.60575021  0.06533160     0.30400
H3711       H  0.96848902  0.55172409  0.06099405     0.38300
H3712       H  0.95088167  0.53748767  0.06200858     0.33700
C3713       C  0.04435143  0.58409553  0.96322925    -0.20000
C3714       C  0.04502355  0.56659493  0.95547846     0.36200
C3715       C  0.05774287  0.56300530  0.94199136    -0.26000
C3716       C  0.07000223  0.57628433  0.93630751     0.02700
C3717       C  0.06929461  0.59374382  0.94398326     0.27500
C3718       C  0.05636852  0.59750124  0.95737428    -0.25100
N3719       N  0.03306573  0.55219392  0.96084516    -0.82500
H3720       H  0.05810216  0.54967101  0.93590640     0.13300
C3721       C  0.08347338  0.57161198  0.92227844     0.02600
N3722       N  0.08178604  0.60748562  0.93824685    -0.81100
H3723       H  0.05567063  0.61086461  0.96335034     0.18100
C3724       C  0.08395840  0.58163161  0.90621695    -0.25900
C3725       C  0.09627287  0.57736861  0.89247969     0.36100
C3726       C  0.10820560  0.56265803  0.89467948    -0.19900
C3727       C  0.10762553  0.55253880  0.91073750    -0.25200
C3728       C  0.09552006  0.55700760  0.92467308     0.27500
H3729       H  0.07454662  0.59269501  0.90422550     0.13300
N3730       N  0.09616707  0.58766750  0.87609767    -0.82500
H3731       H  0.11682913  0.54127091  0.91252179     0.18100
N3732       N  0.09546849  0.54689170  0.94128081    -0.81100
H3733       H  0.08325398  0.58678968  0.87041021     0.33700
H3734       H  0.09854672  0.60120004  0.87943319     0.38200
H3735       H  0.10513740  0.53657794  0.94086025     0.33700
H3736       H  0.09935543  0.55567760  0.95165410     0.30400
H3737       H  0.07936574  0.61959014  0.94514795     0.33700
H3738       H  0.09477702  0.60325221  0.94188791     0.30400
H3739       H  0.02416139  0.55612822  0.97105719     0.38300
H3740       H  0.04102450  0.54185854  0.96629662     0.33700
C3741       C  0.04121013  0.58521776  0.05774310    -0.20000
C3742       C  0.04675729  0.56776177  0.06291551     0.36200
C3743       C  0.05906355  0.56579402  0.07716414    -0.26000
C3744       C  0.06558086  0.58091736  0.08655256     0.02700
C3745       C  0.05973357  0.59839877  0.08161715     0.27500
C3746       C  0.04768391  0.60039871  0.06706220    -0.25100
N3747       N  0.04004756  0.55216744  0.05344662    -0.82500
H3748       H  0.06378919  0.55241960  0.08084877     0.13300
C3749       C  0.07942051  0.57810326  0.10069821     0.02600
N3750       N  0.06600345  0.61394863  0.09144722    -0.81100
H3751       H  0.04315973  0.61374767  0.06305813     0.18100
C3752       C  0.09659281  0.58570745  0.09827182    -0.25900
C3753       C  0.11089909  0.58142781  0.10995543     0.36100
C3754       C  0.10778895  0.56959841  0.12465381    -0.19900
C3755       C  0.09044344  0.56234502  0.12730266    -0.25200
C3756       C  0.07620267  0.56650197  0.11547422     0.27500
H3757       H  0.09904887  0.59432593  0.08667604     0.13300
N3758       N  0.12870521  0.58836317  0.10639402    -0.82500
H3759       H  0.08801447  0.55333954  0.13860462     0.18100
N3760       N  0.05854765  0.55883078  0.11822292    -0.81100
H3761       H  0.12860890  0.59694730  0.09516149     0.33700
H3762       H  0.13696944  0.57739367  0.10300111     0.38200
H3763       H  0.05847398  0.55045417  0.12961179     0.33700
H3764       H  0.04963591  0.56947036  0.12094692     0.30400
H3765       H  0.06042517  0.62578219  0.08608313     0.33700
H3766       H  0.06117327  0.61285019  0.10469445     0.30400
H3767       H  0.02611783  0.55141772  0.05578356     0.38300
H3768       H  0.04566764  0.54033185  0.05876099     0.33700
C3769       C  0.45435723  0.42493850  0.87608893    -0.20000
C3770       C  0.45170832  0.40965763  0.86481308     0.36200
C3771       C  0.43818581  0.39715868  0.86927227    -0.26000
C3772       C  0.42705181  0.39980880  0.88437337     0.02700
C3773       C  0.42906412  0.41539220  0.89507762     0.27500
C3774       C  0.44284834  0.42771505  0.89095432    -0.25100
N3775       N  0.46254881  0.40624696  0.84901093    -0.82500
H3776       H  0.43650072  0.38515217  0.86103402     0.13300
C3777       C  0.41398678  0.38567263  0.88950504     0.02600
N3778       N  0.41724098  0.41844403  0.91021939    -0.81100
H3779       H  0.44484432  0.43944074  0.89952090     0.18100
C3780       C  0.41774646  0.37495340  0.90462785    -0.25900
C3781       C  0.40573781  0.36141641  0.91012061     0.36100
C3782       C  0.38956708  0.35859028  0.90039303    -0.19900
C3783       C  0.38592009  0.36924627  0.88508197    -0.25200
C3784       C  0.39797411  0.38289222  0.87960538     0.27500
H3785       H  0.43016594  0.37703744  0.91213296     0.13300
N3786       N  0.41027854  0.35025613  0.92528883    -0.82500
H3787       H  0.37349296  0.36716539  0.87760524     0.18100
N3788       N  0.39400528  0.39403421  0.86418670    -0.81100
H3789       H  0.42262246  0.34390566  0.92255930     0.33700
H3790       H  0.41203858  0.35862280  0.93654958     0.38200
H3791       H  0.38169017  0.39023131  0.85837770     0.33700
H3792       H  0.39236153  0.40730003  0.86880548     0.30400
H3793       H  0.42056557  0.43053367  0.91675284     0.33700
H3794       H  0.40414383  0.42008788  0.90514198     0.30400
H3795       H  0.47169405  0.41670564  0.84659306     0.38300
H3796       H  0.45385800  0.40605133  0.83786482     0.33700
C3797       C  0.62139697  0.36013215  0.89739078    -0.20000
C3798       C  0.62169141  0.37830258  0.90306015     0.36200
C3799       C  0.60739556  0.38977591  0.89812789    -0.26000
C3800       C  0.59270855  0.38330783  0.88796196     0.02700
C3801       C  0.59262617  0.36520146  0.88199263     0.27500
C3802       C  0.60715536  0.35386406  0.88653799    -0.25100
N3803       N  0.63648987  0.38499884  0.91373868    -0.82500
H3804       H  0.60753549  0.40378136  0.90244195     0.13300
C3805       C  0.57720420  0.39551307  0.88443514     0.02600
N3806       N  0.57755735  0.35827165  0.87185332    -0.81100
H3807       H  0.60700448  0.33985292  0.88223702     0.18100
C3808       C  0.57173315  0.39899522  0.86657687    -0.25900
C3809       C  0.55758928  0.41118188  0.86293511     0.36100
C3810       C  0.54905516  0.42012007  0.87744320    -0.19900
C3811       C  0.55422027  0.41632587  0.89525226    -0.25200
C3812       C  0.56803194  0.40389304  0.89892442     0.27500
H3813       H  0.57872364  0.39243464  0.85548684     0.13300
N3814       N  0.55185713  0.41452958  0.84466740    -0.82500
H3815       H  0.54744787  0.42318771  0.90630099     0.18100
N3816       N  0.57280916  0.39970475  0.91729957    -0.81100
H3817       H  0.55932261  0.40661905  0.83562049     0.33700
H3818       H  0.55479388  0.42800063  0.84158744     0.38200
H3819       H  0.56478996  0.40705866  0.92634168     0.33700
H3820       H  0.56985741  0.38604980  0.91946425     0.30400
H3821       H  0.57963229  0.34468678  0.86851816     0.33700
H3822       H  0.56618674  0.35868413  0.88026110     0.30400
H3823       H  0.64817821  0.38424106  0.90580444     0.38300
H3824       H  0.63458148  0.39866176  0.91684778     0.33700
C3825       C  0.39440822  0.58443127  0.90260198    -0.20000
C3826       C  0.41185940  0.58503103  0.91038213     0.36200
C3827       C  0.42480786  0.57205185  0.90529426    -0.26000
C3828       C  0.42055250  0.55846502  0.89279753     0.02700
C3829       C  0.40311677  0.55768854  0.88519761     0.27500
C3830       C  0.39030714  0.57089629  0.88992852    -0.25100
N3831       N  0.41635696  0.59877697  0.92337471    -0.82500
H3832       H  0.43820166  0.57235666  0.91123960     0.13300
C3833       C  0.43410652  0.54439496  0.88867540     0.02600
N3834       N  0.39824551  0.54299964  0.87341816    -0.81100
H3835       H  0.37683042  0.57021557  0.88421511     0.18100
C3836       C  0.43568179  0.52961075  0.90040399    -0.25900
C3837       C  0.44823709  0.51579611  0.89697674     0.36100
C3838       C  0.45911218  0.51670734  0.88134490    -0.19900
C3839       C  0.45771971  0.53161596  0.86971729    -0.25200
C3840       C  0.44533396  0.54560041  0.87330159     0.27500
H3841       H  0.42714436  0.52894369  0.91230487     0.13300
N3842       N  0.45013588  0.50089905  0.90931963    -0.82500
H3843       H  0.46643737  0.53237047  0.85795567     0.18100
N3844       N  0.44448706  0.56122536  0.86176293    -0.81100
H3845       H  0.44110758  0.50223652  0.92012640     0.33700
H3846       H  0.46314427  0.50153688  0.91482902     0.38200
H3847       H  0.45394337  0.56015232  0.85129572     0.33700
H3848       H  0.43176151  0.56149063  0.85564756     0.30400
H3849       H  0.38470608  0.54408181  0.86948477     0.33700
H3850       H  0.40594732  0.54407589  0.86162728     0.30400
H3851       H  0.41580130  0.61125797  0.91676285     0.38300
H3852       H  0.42965738  0.59717868  0.92790863     0.33700
C3853       C  0.55329742  0.51191712  0.88461878    -0.20000
C3854       C  0.55473978  0.52871940  0.87569876     0.36200
C3855       C  0.56800953  0.54112429  0.88126089    -0.26000
C3856       C  0.58005281  0.53686291  0.89528084     0.02700
C3857       C  0.57914474  0.51975985  0.90363566     0.27500
C3858       C  0.56559189  0.50754768  0.89840643    -0.25100
N3859       N  0.54246613  0.53320211  0.86130987    -0.82500
H3860       H  0.56879864  0.55428336  0.87486863     0.13300
C3861       C  0.59300789  0.55074235  0.90167114     0.02600
N3862       N  0.59196178  0.51494625  0.91743171    -0.81100
H3863       H  0.56447363  0.49461390  0.90520024     0.18100
C3864       C  0.59145791  0.55724250  0.91939357    -0.25900
C3865       C  0.60309024  0.57073852  0.92597269     0.36100
C3866       C  0.61682196  0.57775925  0.91456742    -0.19900
C3867       C  0.61823453  0.57119872  0.89674221    -0.25200
C3868       C  0.60652158  0.55771882  0.89022210     0.27500
H3869       H  0.58087185  0.55193698  0.92803961     0.13300
N3870       N  0.60072552  0.57748400  0.94406189    -0.82500
H3871       H  0.62871804  0.57636889  0.88790905     0.18100
N3872       N  0.60839903  0.55092116  0.87210226    -0.81100
H3873       H  0.59030407  0.57059461  0.95069111     0.33700
H3874       H  0.59660697  0.59097469  0.94307131     0.38200
H3875       H  0.61899118  0.55746789  0.86540044     0.33700
H3876       H  0.61200926  0.53727839  0.87300126     0.30400
H3877       H  0.58944547  0.50187718  0.92219976     0.33700
H3878       H  0.60476889  0.51464557  0.91142546     0.30400
H3879       H  0.54482320  0.52413986  0.85071372     0.38300
H3880       H  0.54520460  0.54612960  0.85629083     0.33700
C3881       C  0.39908367  0.34113307  0.09662867    -0.20000
C3882       C  0.41472456  0.34594704  0.08673906     0.36200
C3883       C  0.42609181  0.35968011  0.09315251    -0.26000
C3884       C  0.42235690  0.36861411  0.10943246     0.02700
C3885       C  0.40738107  0.36323388  0.11984344     0.27500
C3886       C  0.39591415  0.34951765  0.11343655    -0.25100
N3887       N  0.41920568  0.33693125  0.07019503    -0.82500
H3888       H  0.43777355  0.36361546  0.08520690     0.13300
C3889       C  0.43345469  0.38447638  0.11446814     0.02600
N3890       N  0.40336914  0.37218872  0.13654367    -0.81100
H3891       H  0.38408774  0.34599078  0.12133516     0.18100
C3892       C  0.43322791  0.39965683  0.10310299    -0.25900
C3893       C  0.44429082  0.41465961  0.10663606     0.36100
C3894       C  0.45576597  0.41441655  0.12185303    -0.19900
C3895       C  0.45572012  0.39940747  0.13345261    -0.25200
C3896       C  0.44464256  0.38442397  0.12985838     0.27500
H3897       H  0.42454998  0.39965501  0.09129441     0.13300
N3898       N  0.44415317  0.43002611  0.09472775    -0.82500
H3899       H  0.46462875  0.39918226  0.14508271     0.18100
N3900       N  0.44517258  0.36898269  0.14151924    -0.81100
H3901       H  0.43483405  0.42812047  0.08426844     0.33700
H3902       H  0.45690786  0.43088649  0.08867451     0.38200
H3903       H  0.45848806  0.36422870  0.14191149     0.33700
H3904       H  0.44166374  0.37322361  0.15454736     0.30400
H3905       H  0.39041699  0.37778142  0.13555761     0.33700
H3906       H  0.40314702  0.36244850  0.14678671     0.30400
H3907       H  0.41991649  0.34662723  0.05993143     0.38300
H3908       H  0.43202568  0.33113338  0.07163963     0.33700
C3909       C  0.38377678  0.57074410  0.09442516    -0.20000
C3910       C  0.39990074  0.56635253  0.08526754     0.36200
C3911       C  0.41080258  0.55231528  0.09175663    -0.26000
C3912       C  0.40576857  0.54240896  0.10712599     0.02700
C3913       C  0.38947627  0.54647624  0.11611925     0.27500
C3914       C  0.37867041  0.56072016  0.10973901    -0.25100
N3915       N  0.40562246  0.57655187  0.06982420    -0.82500
H3916       H  0.42342798  0.54928926  0.08492897     0.13300
C3917       C  0.41821570  0.52837367  0.11398189     0.02600
N3918       N  0.38406707  0.53617871  0.13169230    -0.81100
H3919       H  0.36618419  0.56397614  0.11670268     0.18100
C3920       C  0.42636003  0.53099141  0.13095103    -0.25900
C3921       C  0.44014213  0.51952802  0.13698125     0.36100
C3922       C  0.44608812  0.50532201  0.12571386    -0.19900
C3923       C  0.43734104  0.50217652  0.10920838    -0.25200
C3924       C  0.42330295  0.51333140  0.10327910     0.27500
H3925       H  0.42239319  0.54238542  0.13928462     0.13300
N3926       N  0.44791956  0.52264491  0.15444329    -0.82500
H3927       H  0.44173267  0.49109477  0.10066033     0.18100
N3928       N  0.41477258  0.50908140  0.08631170    -0.81100
H3929       H  0.46170377  0.52531646  0.15292992     0.33700
H3930       H  0.44650607  0.51083068  0.16207031     0.38200
H3931       H  0.40928614  0.49610188  0.08745777     0.33700
H3932       H  0.40382918  0.51758578  0.08368796     0.30400
H3933       H  0.37175293  0.54094715  0.13677248     0.33700
H3934       H  0.38182431  0.52288167  0.12744461     0.30400
H3935       H  0.40711396  0.56762498  0.05895788     0.38300
H3936       H  0.41829686  0.58213742  0.07266501     0.33700
C3937       C  0.54973029  0.42478211  0.11640500    -0.20000
C3938       C  0.55359923  0.40882774  0.12601135     0.36200
C3939       C  0.56798328  0.39778306  0.12045995    -0.26000
C3940       C  0.57880449  0.40255421  0.10560207     0.02700
C3941       C  0.57546269  0.41904825  0.09644534     0.27500
C3942       C  0.56080962  0.42979960  0.10183332    -0.25100
N3943       N  0.54285858  0.40378211  0.14132128    -0.82500
H3944       H  0.57054427  0.38524512  0.12760534     0.13300
C3945       C  0.59279356  0.38958743  0.09950037     0.02600
N3946       N  0.58656251  0.42534171  0.08174812    -0.81100
H3947       H  0.55798827  0.44219324  0.09453423     0.18100
C3948       C  0.59045598  0.38062666  0.08296853    -0.25900
C3949       C  0.60275128  0.36737289  0.07722728     0.36100
C3950       C  0.61775112  0.36295284  0.08819509    -0.19900
C3951       C  0.62015052  0.37214760  0.10468219    -0.25200
C3952       C  0.60782709  0.38544677  0.11042090     0.27500
H3953       H  0.57877973  0.38368303  0.07465065     0.13300
N3954       N  0.59950682  0.35797780  0.06060162    -0.82500
H3955       H  0.63167792  0.36895392  0.11314143     0.18100
N3956       N  0.61039254  0.39467684  0.12733600    -0.81100
H3957       H  0.58682524  0.35177835  0.06143809     0.33700
H3958       H  0.59905139  0.36750590  0.05016964     0.38200
H3959       H  0.62205460  0.38999683  0.13381853     0.33700
H3960       H  0.61256146  0.40834748  0.12445979     0.30400
H3961       H  0.59220374  0.43769577  0.08568450     0.33700
H3962       H  0.59746729  0.41672168  0.07933403     0.30400
H3963       H  0.55143468  0.40263013  0.15249798     0.38300
H3964       H  0.53728938  0.39104113  0.13876919     0.33700
C3965       C  0.54031664  0.51634648  0.12385191    -0.20000
C3966       C  0.54331033  0.52338009  0.10639433     0.36200
C3967       C  0.55611455  0.53717450  0.10397378    -0.26000
C3968       C  0.56645887  0.54365758  0.11853258     0.02700
C3969       C  0.56341222  0.53659146  0.13602881     0.27500
C3970       C  0.55010720  0.52322988  0.13854708    -0.25100
N3971       N  0.53322011  0.51653780  0.09124637    -0.82500
H3972       H  0.55817210  0.54281256  0.09060744     0.13300
C3973       C  0.58039397  0.55778968  0.11505799     0.02600
N3974       N  0.57408245  0.54271387  0.15106915    -0.81100
H3975       H  0.54769646  0.51774516  0.15191920     0.18100
C3976       C  0.58014616  0.57399365  0.12500260    -0.25900
C3977       C  0.59245443  0.58803944  0.12124308     0.36100
C3978       C  0.60501036  0.58593418  0.10700874    -0.19900
C3979       C  0.60538664  0.56966272  0.09725459    -0.25200
C3980       C  0.59348447  0.55546268  0.10133673     0.27500
H3981       H  0.57004070  0.57585182  0.13545611     0.13300
N3982       N  0.59193866  0.60454203  0.13150288    -0.82500
H3983       H  0.61527183  0.56789547  0.08656908     0.18100
N3984       N  0.59471938  0.53862009  0.09168621    -0.81100
H3985       H  0.58200805  0.60384439  0.14155521     0.33700
H3986       H  0.58808159  0.61492625  0.12272215     0.38200
H3987       H  0.60501868  0.53913227  0.08200212     0.33700
H3988       H  0.59841135  0.52863529  0.10098905     0.30400
H3989       H  0.57010437  0.53619540  0.16297024     0.33700
H3990       H  0.58747958  0.53888219  0.14863162     0.30400
H3991       H  0.53683546  0.50298753  0.08944666     0.38300
H3992       H  0.53686289  0.52330232  0.07937656     0.33700
C3993       C  0.90213941  0.36227713  0.37615691    -0.20000
C3994       C  0.88787583  0.36034642  0.38875083     0.36200
C3995       C  0.88480543  0.37403942  0.40159887    -0.26000
C3996       C  0.89591060  0.38938296  0.40238120     0.02700
C3997       C  0.91007199  0.39140278  0.38981093     0.27500
C3998       C  0.91305067  0.37783924  0.37685354    -0.25100
N3999       N  0.87706859  0.34422069  0.38901211    -0.82500
H4000       H  0.87408057  0.37248153  0.41147472     0.13300
C4001       C  0.89302949  0.40281949  0.41697392     0.02600
N4002       N  0.92138634  0.40720060  0.39032337    -0.81100
H4003       H  0.92401845  0.37940998  0.36725326     0.18100
C4004       C  0.90654815  0.40528899  0.43004825    -0.25900
C4005       C  0.90394541  0.41724770  0.44452064     0.36100
C4006       C  0.88756574  0.42682836  0.44604223    -0.19900
C4007       C  0.87417924  0.42468989  0.43280276    -0.25200
C4008       C  0.87679561  0.41278935  0.41818357     0.27500
H4009       H  0.91906814  0.39770821  0.42913855     0.13300
N4010       N  0.91790724  0.41965024  0.45772415    -0.82500
H4011       H  0.86165792  0.43221831  0.43398982     0.18100
N4012       N  0.86310588  0.41077517  0.40454448    -0.81100
H4013       H  0.92955828  0.42407612  0.45103786     0.33700
H4014       H  0.92070440  0.40705964  0.46351055     0.38200
H4015       H  0.85199388  0.41904208  0.40742407     0.33700
H4016       H  0.86854591  0.41540565  0.39233924     0.30400
H4017       H  0.93126434  0.40658034  0.38021560     0.33700
H4018       H  0.91324443  0.41837771  0.38736410     0.30400
H4019       H  0.86707976  0.34504012  0.39899603     0.38300
H4020       H  0.88553453  0.33349271  0.39265306     0.33700
C4021       C  0.88798077  0.41281436  0.53740408    -0.20000
C4022       C  0.90547810  0.40562459  0.53946956     0.36200
C4023       C  0.90818662  0.39126963  0.55151995    -0.26000
C4024       C  0.89361513  0.38370619  0.56105012     0.02700
C4025       C  0.87592318  0.39026021  0.55810806     0.27500
C4026       C  0.87330826  0.40498807  0.54644576    -0.25100
N4027       N  0.92043750  0.41335618  0.52974347    -0.82500
H4028       H  0.92176582  0.38627647  0.55386597     0.13300
C4029       C  0.89734414  0.36994282  0.57506921     0.02600
N4030       N  0.86078220  0.38201050  0.56709427    -0.81100
H4031       H  0.85986518  0.41048825  0.54446365     0.18100
C4032       C  0.89190833  0.37341233  0.59292189    -0.25900
C4033       C  0.89637051  0.36149308  0.60696400     0.36100
C4034       C  0.90644008  0.34580257  0.60298666    -0.19900
C4035       C  0.91187963  0.34230335  0.58515983    -0.25200
C4036       C  0.90727912  0.35414962  0.57108696     0.27500
H4037       H  0.88463360  0.38576725  0.59598118     0.13300
N4038       N  0.89128490  0.36557256  0.62528836    -0.82500
H4039       H  0.91961137  0.33019794  0.58221097     0.18100
N4040       N  0.91265542  0.35026040  0.55280689    -0.81100
H4041       H  0.88391991  0.37763472  0.62586339     0.33700
H4042       H  0.90316717  0.36774382  0.63263720     0.38200
H4043       H  0.91996486  0.33816500  0.55222025     0.33700
H4044       H  0.90088429  0.34826860  0.54523725     0.30400
H4045       H  0.84873081  0.38847283  0.56348544     0.33700
H4046       H  0.85980563  0.36870327  0.56241580     0.30400
H4047       H  0.91820340  0.41109667  0.51596614     0.38300
H4048       H  0.93246286  0.40666316  0.53299803     0.33700
C4049       C  0.88563236  0.52037322  0.46170302    -0.20000
C4050       C  0.90092138  0.53122121  0.46530640     0.36200
C4051       C  0.90475052  0.54595315  0.45398445    -0.26000
C4052       C  0.89385200  0.54967031  0.43896461     0.02700
C4053       C  0.87850303  0.53895228  0.43541856     0.27500
C4054       C  0.87440138  0.52447648  0.44699663    -0.25100
N4055       N  0.91274823  0.52686441  0.48011473    -0.82500
H4056       H  0.91667729  0.55411955  0.45639940     0.13300
C4057       C  0.89989349  0.56341424  0.42586466     0.02600
N4058       N  0.86770800  0.54229267  0.41960411    -0.81100
H4059       H  0.86280349  0.51595902  0.44423338     0.18100
C4060       C  0.91192153  0.55812279  0.41220981    -0.25900
C4061       C  0.91776529  0.57048200  0.39906093     0.36100
C4062       C  0.91145601  0.58845308  0.39972586    -0.19900
C4063       C  0.89947545  0.59377714  0.41346538    -0.25200
C4064       C  0.89375316  0.58141880  0.42672877     0.27500
H4065       H  0.91655040  0.54422138  0.41171054     0.13300
N4066       N  0.92967908  0.56476590  0.38478555    -0.82500
H4067       H  0.89470859  0.60763164  0.41389034     0.18100
N4068       N  0.88205824  0.58710715  0.44119534    -0.81100
H4069       H  0.93307803  0.55112467  0.38631009     0.33700
H4070       H  0.92256309  0.56580360  0.37261322     0.38200
H4071       H  0.87907459  0.60087933  0.44001738     0.33700
H4072       H  0.86979743  0.58022020  0.43986417     0.30400
H4073       H  0.85722662  0.53285039  0.41867947     0.33700
H4074       H  0.86158812  0.55493669  0.42112893     0.30400
H4075       H  0.91863795  0.51430515  0.47735360     0.38300
H4076       H  0.92333905  0.53619333  0.48093456     0.33700
C4077       C  0.88466386  0.50576035  0.55274482    -0.20000
C4078       C  0.89980111  0.51724299  0.55466195     0.36200
C4079       C  0.90152420  0.52792901  0.57015141    -0.26000
C4080       C  0.88873720  0.52705600  0.58419773     0.02700
C4081       C  0.87368383  0.51548624  0.58233025     0.27500
C4082       C  0.87172645  0.50501610  0.56660322    -0.25100
N4083       N  0.91388588  0.51789012  0.54135489    -0.82500
H4084       H  0.91304464  0.53691328  0.57127838     0.13300
C4085       C  0.89142135  0.53838719  0.60061579     0.02600
N4086       N  0.86062733  0.51397145  0.59656208    -0.81100
H4087       H  0.86021151  0.49604479  0.56531032     0.18100
C4088       C  0.87759739  0.54999686  0.60650179    -0.25900
C4089       C  0.88033097  0.56201861  0.62096303     0.36100
C4090       C  0.89742407  0.56286471  0.62955201    -0.19900
C4091       C  0.91089506  0.55051751  0.62416437    -0.25200
C4092       C  0.90802383  0.53834079  0.60994425     0.27500
H4093       H  0.86473067  0.55014969  0.59949500     0.13300
N4094       N  0.86577010  0.57352429  0.62649536    -0.82500
H4095       H  0.92396128  0.55042829  0.63079098     0.18100
N4096       N  0.92206261  0.52592082  0.60499904    -0.81100
H4097       H  0.86176993  0.58125973  0.61536087     0.33700
H4098       H  0.85487664  0.56534215  0.63028462     0.38200
H4099       H  0.93355819  0.53340263  0.60155117     0.33700
H4100       H  0.92519686  0.51808334  0.61633701     0.30400
H4101       H  0.84795599  0.51736212  0.59127796     0.33700
H4102       H  0.86016637  0.50045796  0.60068251     0.30400
H4103       H  0.90841071  0.52224088  0.52909368     0.38300
H4104       H  0.91900693  0.50482437  0.53961118     0.33700
C4105       C  0.44600370  0.86237157  0.46647939    -0.20000
C4106       C  0.44211271  0.88023419  0.46120110     0.36200
C4107       C  0.42847761  0.88353036  0.44846425    -0.26000
C4108       C  0.41796653  0.86931651  0.44149193     0.02700
C4109       C  0.42109697  0.85148983  0.44778202     0.27500
C4110       C  0.43536968  0.84817364  0.45987693    -0.25100
N4111       N  0.45234155  0.89499620  0.46845270    -0.82500
H4112       H  0.42645727  0.89722532  0.44368997     0.13300
C4113       C  0.40464208  0.87301849  0.42680682     0.02600
N4114       N  0.40982358  0.83682314  0.44180193    -0.81100
H4115       H  0.43825079  0.83447427  0.46420509     0.18100
C4116       C  0.40491620  0.86207306  0.41130764    -0.25900
C4117       C  0.39272134  0.86478272  0.39711816     0.36100
C4118       C  0.38026527  0.87920871  0.39790166    -0.19900
C4119       C  0.38027664  0.89055656  0.41315424    -0.25200
C4120       C  0.39211553  0.88746299  0.42774012     0.27500
H4121       H  0.41482779  0.85134576  0.41006938     0.13300
N4122       N  0.39343297  0.85304616  0.38174735    -0.82500
H4123       H  0.37074351  0.90166744  0.41387952     0.18100
N4124       N  0.39129637  0.89879648  0.44351718    -0.81100
H4125       H  0.40642439  0.85374339  0.37619944     0.33700
H4126       H  0.39129635  0.83981121  0.38624362     0.38200
H4127       H  0.38146269  0.90884523  0.44196884     0.33700
H4128       H  0.38718726  0.89072923  0.45437162     0.30400
H4129       H  0.41397713  0.82462430  0.44761811     0.33700
H4130       H  0.39672045  0.83932577  0.44650605     0.30400
H4131       H  0.44332963  0.90387609  0.47477647     0.38300
H4132       H  0.45840959  0.90187127  0.45768818     0.33700
C4133       C  0.54020478  0.86208033  0.45746690    -0.20000
C4134       C  0.54954371  0.87867912  0.45773965     0.36200
C4135       C  0.56277001  0.88202088  0.44459928    -0.26000
C4136       C  0.56678003  0.86904180  0.43136585     0.02700
C4137       C  0.55686186  0.85277083  0.43066960     0.27500
C4138       C  0.54361744  0.84942385  0.44381951    -0.25100
N4139       N  0.54562347  0.89194935  0.47141880    -0.82500
H4140       H  0.57048701  0.89446812  0.44508898     0.13300
C4141       C  0.58252115  0.87201464  0.41946533     0.02600
N4142       N  0.56053158  0.83965482  0.41679689    -0.81100
H4143       H  0.53618264  0.83679930  0.44370074     0.18100
C4144       C  0.59696625  0.85975698  0.42028489    -0.25900
C4145       C  0.61284995  0.86271601  0.41037529     0.36100
C4146       C  0.61424287  0.87830738  0.39947732    -0.19900
C4147       C  0.59974480  0.89054617  0.39862603    -0.25200
C4148       C  0.58378235  0.88745340  0.40839398     0.27500
H4149       H  0.59599959  0.84807857  0.42908457     0.13300
N4150       N  0.62770680  0.85023186  0.41172492    -0.82500
H4151       H  0.60077659  0.90240926  0.39008769     0.18100
N4152       N  0.56884395  0.89984181  0.40711201    -0.81100
H4153       H  0.62439603  0.83943881  0.42023733     0.33700
H4154       H  0.63847579  0.85704646  0.41784422     0.38200
H4155       H  0.57198815  0.91052582  0.39840296     0.33700
H4156       H  0.55802417  0.89288449  0.40124609     0.30400
H4157       H  0.55213296  0.82837939  0.41828826     0.33700
H4158       H  0.55723704  0.84555555  0.40438204     0.30400
H4159       H  0.54967079  0.88665798  0.48387945     0.38300
H4160       H  0.55334400  0.90361200  0.46935407     0.33700
C4161       C  0.45644870  0.85534582  0.55802678    -0.20000
C4162       C  0.44826165  0.87242986  0.55985316     0.36200
C4163       C  0.43586080  0.87529592  0.57385012    -0.26000
C4164       C  0.43187992  0.86154516  0.58627550     0.02700
C4165       C  0.44032633  0.84449057  0.58460355     0.27500
C4166       C  0.45254285  0.84152579  0.57035763    -0.25100
N4167       N  0.45250218  0.88668883  0.54733229    -0.82500
H4168       H  0.42918055  0.88828742  0.57505175     0.13300
C4169       C  0.41848289  0.86524267  0.60065815     0.02600
N4170       N  0.43648954  0.83035194  0.59737629    -0.81100
H4171       H  0.45903187  0.82847400  0.56881273     0.18100
C4172       C  0.40294464  0.85447480  0.60177849    -0.25900
C4173       C  0.38932990  0.85824816  0.61444909     0.36100
C4174       C  0.39145271  0.87306402  0.62638769    -0.19900
C4175       C  0.40702398  0.88385782  0.62516183    -0.25200
C4176       C  0.42061848  0.88003165  0.61249715     0.27500
H4177       H  0.40122098  0.84337235  0.59236743     0.13300
N4178       N  0.37319565  0.84739629  0.61483871    -0.82500
H4179       H  0.40872942  0.89518765  0.63429651     0.18100
N4180       N  0.43661816  0.89105143  0.61161560    -0.81100
H4181       H  0.37394917  0.83694059  0.60534608     0.33700
H4182       H  0.36240490  0.85564705  0.61090063     0.38200
H4183       H  0.43603558  0.90146528  0.62116360     0.33700
H4184       H  0.44762841  0.88290468  0.61513505     0.30400
H4185       H  0.44375238  0.81864889  0.59415216     0.33700
H4186       H  0.44111828  0.83464756  0.61002270     0.30400
H4187       H  0.46616585  0.88992909  0.54900650     0.38300
H4188       H  0.44516899  0.89837494  0.55044439     0.33700
C4189       C  0.55044615  0.85229436  0.54818800    -0.20000
C4190       C  0.55780234  0.86959608  0.55139034     0.36200
C4191       C  0.57234070  0.87152098  0.56324664    -0.26000
C4192       C  0.57996064  0.85646847  0.57192493     0.02700
C4193       C  0.57289545  0.83905254  0.56847238     0.27500
C4194       C  0.55807596  0.83715011  0.55666300    -0.25100
N4195       N  0.55058165  0.88544942  0.54291191    -0.82500
H4196       H  0.57753825  0.88494981  0.56596754     0.13300
C4197       C  0.59470435  0.85950243  0.58520907     0.02600
N4198       N  0.58080147  0.82344859  0.57694073    -0.81100
H4199       H  0.55244034  0.82388420  0.55404186     0.18100
C4200       C  0.59222520  0.85405831  0.60321623    -0.25900
C4201       C  0.60491105  0.85854777  0.61657915     0.36100
C4202       C  0.62035914  0.86869743  0.61192838    -0.19900
C4203       C  0.62300942  0.87388399  0.59388061    -0.25200
C4204       C  0.61044579  0.86920056  0.58041957     0.27500
H4205       H  0.58004795  0.84685955  0.60705729     0.13300
N4206       N  0.60160928  0.85352948  0.63499197    -0.82500
H4207       H  0.63497828  0.88153720  0.59027121     0.18100
N4208       N  0.61351523  0.87433352  0.56192199    -0.81100
H4209       H  0.58924074  0.85914166  0.63895545     0.33700
H4210       H  0.60040121  0.83945649  0.63555417     0.38200
H4211       H  0.62566324  0.88146287  0.56067806     0.33700
H4212       H  0.61500236  0.86245768  0.55439007     0.30400
H4213       H  0.57399883  0.81169674  0.57300637     0.33700
H4214       H  0.59406160  0.82224840  0.57215921     0.30400
H4215       H  0.53696371  0.88669335  0.54650374     0.38300
H4216       H  0.55138503  0.88378189  0.52889731     0.33700
C4217       C  0.11453518  0.42638495  0.44808781    -0.20000
C4218       C  0.12657287  0.41176400  0.44556950     0.36200
C4219       C  0.12304074  0.39888495  0.43213713    -0.26000
C4220       C  0.10784940  0.40046379  0.42084431     0.02700
C4221       C  0.09630042  0.41559435  0.42276470     0.27500
C4222       C  0.09965779  0.42828142  0.43650644    -0.25100
N4223       N  0.14254685  0.40981114  0.45634684    -0.82500
H4224       H  0.13203795  0.38740149  0.43072627     0.13300
C4225       C  0.10360566  0.38590985  0.40758738     0.02600
N4226       N  0.08120394  0.41797273  0.41074263    -0.81100
H4227       H  0.09058817  0.43966045  0.43830348     0.18100
C4228       C  0.08654596  0.37767759  0.40829869    -0.25900
C4229       C  0.08130172  0.36466406  0.39551817     0.36100
C4230       C  0.09339371  0.35980540  0.38143990    -0.19900
C4231       C  0.11088349  0.36733253  0.38137210    -0.25200
C4232       C  0.11609706  0.38035385  0.39425578     0.27500
H4233       H  0.07720104  0.38151756  0.41892762     0.13300
N4234       N  0.06374299  0.35640558  0.39689466    -0.82500
H4235       H  0.12035879  0.36355303  0.37084962     0.18100
N4236       N  0.13384301  0.38826308  0.39355960    -0.81100
H4237       H  0.05645275  0.36178634  0.40776108     0.33700
H4238       H  0.06571533  0.34270276  0.39975904     0.38200
H4239       H  0.14143059  0.38260038  0.38304670     0.33700
H4240       H  0.13230026  0.40198343  0.39053221     0.30400
H4241       H  0.07402965  0.42971998  0.41399874     0.33700
H4242       H  0.08638961  0.41985989  0.39772168     0.30400
H4243       H  0.15025443  0.42158766  0.45501524     0.38300
H4244       H  0.13878026  0.40845426  0.46988977     0.33700
C4245       C  0.11838791  0.51836661  0.44976907    -0.20000
C4246       C  0.13087311  0.53231474  0.44606551     0.36200
C4247       C  0.12718163  0.54469066  0.43221968    -0.26000
C4248       C  0.11126362  0.54334021  0.42194245     0.02700
C4249       C  0.09914730  0.52895200  0.42517704     0.27500
C4250       C  0.10274463  0.51674791  0.43921086    -0.25100
N4251       N  0.14740654  0.53405316  0.45599963    -0.82500
H4252       H  0.13663727  0.55558217  0.42963117     0.13300
C4253       C  0.10720093  0.55726204  0.40810126     0.02600
N4254       N  0.08327119  0.52680141  0.41416376    -0.81100
H4255       H  0.09333227  0.50585231  0.44195827     0.18100
C4256       C  0.11926742  0.56000545  0.39370960    -0.25900
C4257       C  0.11544162  0.57262322  0.37997894     0.36100
C4258       C  0.09923679  0.58276231  0.38080218    -0.19900
C4259       C  0.08734058  0.58010063  0.39539135    -0.25200
C4260       C  0.09125483  0.56766110  0.40914195     0.27500
H4261       H  0.13152281  0.55198883  0.39301400     0.13300
N4262       N  0.12773885  0.57485025  0.36507949    -0.82500
H4263       H  0.07503344  0.58801479  0.39626974     0.18100
N4264       N  0.07917720  0.56563295  0.42426349    -0.81100
H4265       H  0.13904635  0.56649751  0.36664085     0.33700
H4266       H  0.12110271  0.57049909  0.35338004     0.38200
H4267       H  0.08611686  0.56975777  0.43586832     0.33700
H4268       H  0.06800894  0.57420959  0.42295039     0.30400
H4269       H  0.08757364  0.52403388  0.40098011     0.33700
H4270       H  0.07573244  0.51561732  0.41840544     0.30400
H4271       H  0.15461938  0.52195183  0.45476208     0.38300
H4272       H  0.14429798  0.53600939  0.46964133     0.33700
C4273       C  0.11152171  0.42514388  0.54246465    -0.20000
C4274       C  0.09575732  0.42605288  0.55325850     0.36200
C4275       C  0.09215814  0.41229682  0.56567690    -0.26000
C4276       C  0.10400680  0.39764253  0.56756141     0.02700
C4277       C  0.11952479  0.39650752  0.55660688     0.27500
C4278       C  0.12323490  0.41031615  0.54417701    -0.25100
N4279       N  0.08300936  0.44055856  0.55158648    -0.82500
H4280       H  0.08013719  0.41311269  0.57403952     0.13300
C4281       C  0.10026377  0.38393329  0.58151668     0.02600
N4282       N  0.13133064  0.38120536  0.55792330    -0.81100
H4283       H  0.13513368  0.40937033  0.53565783     0.18100
C4284       C  0.08543632  0.37233996  0.57950327    -0.25900
C4285       C  0.08134766  0.35941939  0.59281196     0.36100
C4286       C  0.09218265  0.35841779  0.60856407    -0.19900
C4287       C  0.10707875  0.37002615  0.61041272    -0.25200
C4288       C  0.11112159  0.38280393  0.59704982     0.27500
H4289       H  0.07717158  0.37329151  0.56743980     0.13300
N4290       N  0.06648345  0.34714780  0.59022680    -0.82500
H4291       H  0.11542003  0.36943583  0.62244475     0.18100
N4292       N  0.12602384  0.39494016  0.59943114    -0.81100
H4293       H  0.05990353  0.34977184  0.57799327     0.33700
H4294       H  0.07185769  0.33410603  0.58919058     0.38200
H4295       H  0.12390679  0.40220598  0.61137651     0.33700
H4296       H  0.13776959  0.38722376  0.60100256     0.30400
H4297       H  0.13197939  0.37504816  0.54520851     0.33700
H4298       H  0.14426718  0.38589853  0.56115711     0.30400
H4299       H  0.07872094  0.44123963  0.53813680     0.38300
H4300       H  0.08942197  0.45269328  0.55489277     0.33700
C4301       C  0.11176100  0.51652222  0.54457638    -0.20000
C4302       C  0.09414954  0.51573683  0.55182499     0.36200
C4303       C  0.08932231  0.52744044  0.56595867    -0.26000
C4304       C  0.10161624  0.54022300  0.57267775     0.02700
C4305       C  0.11922751  0.54113868  0.56526429     0.27500
C4306       C  0.12416666  0.52916162  0.55130279    -0.25100
N4307       N  0.08126249  0.50302479  0.54473610    -0.82500
H4308       H  0.07587367  0.52665509  0.57174248     0.13300
C4309       C  0.09575157  0.55258720  0.58740664     0.02600
N4310       N  0.13190779  0.55433569  0.57180929    -0.81100
H4311       H  0.13764565  0.52971059  0.54556725     0.18100
C4312       C  0.10547018  0.55294066  0.60367853    -0.25900
C4313       C  0.10034085  0.56444121  0.61791437     0.36100
C4314       C  0.08522214  0.57596360  0.61575858    -0.19900
C4315       C  0.07518594  0.57519315  0.59967879    -0.25200
C4316       C  0.08037393  0.56374245  0.58542240     0.27500
H4317       H  0.11700560  0.54404610  0.60532619     0.13300
N4318       N  0.11023747  0.56420506  0.63463521    -0.82500
H4319       H  0.06356843  0.58397361  0.59800141     0.18100
N4320       N  0.07029264  0.56363389  0.56880353    -0.81100
H4321       H  0.12101478  0.55506882  0.63396089     0.33700
H4322       H  0.10150772  0.55944643  0.64469495     0.38200
H4323       H  0.05932690  0.57253681  0.56955861     0.33700
H4324       H  0.07879856  0.56850732  0.55861084     0.30400
H4325       H  0.14424275  0.55318711  0.56497826     0.33700
H4326       H  0.12673586  0.56712984  0.56872854     0.30400
H4327       H  0.07866917  0.50661207  0.53130798     0.38300
H4328       H  0.06895093  0.50406657  0.55162476     0.33700
C4329       C  0.44720452  0.08825272  0.45501786    -0.20000
C4330       C  0.44644447  0.09957570  0.43968550     0.36200
C4331       C  0.43333263  0.09626115  0.42635192    -0.26000
C4332       C  0.42078787  0.08218262  0.42841773     0.02700
C4333       C  0.42063649  0.07188455  0.44444373     0.27500
C4334       C  0.43401705  0.07485736  0.45748771    -0.25100
N4335       N  0.45941457  0.11387750  0.43746603    -0.82500
H4336       H  0.43326524  0.10423766  0.41406321     0.13300
C4337       C  0.40877654  0.07730020  0.41322292     0.02600
N4338       N  0.40711398  0.05817797  0.44715069    -0.81100
H4339       H  0.43451810  0.06634590  0.46940655     0.18100
C4340       C  0.41010735  0.05987513  0.40591336    -0.25900
C4341       C  0.39864744  0.05418999  0.39193871     0.36100
C4342       C  0.38550781  0.06631456  0.38506297    -0.19900
C4343       C  0.38466657  0.08401616  0.39205969    -0.25200
C4344       C  0.39606113  0.08956881  0.40619138     0.27500
H4345       H  0.42016826  0.05063111  0.41123060     0.13300
N4346       N  0.40039101  0.03618508  0.38478607    -0.82500
H4347       H  0.37468089  0.09342443  0.38692756     0.18100
N4348       N  0.39448120  0.10742069  0.41373094    -0.81100
H4349       H  0.41036631  0.02894161  0.39171426     0.33700
H4350       H  0.40481728  0.03731988  0.37140403     0.38200
H4351       H  0.38445123  0.11479062  0.40702111     0.33700
H4352       H  0.39018706  0.10604282  0.42713489     0.30400
H4353       H  0.40894252  0.05177400  0.45962053     0.33700
H4354       H  0.39454854  0.06465043  0.44774189     0.30400
H4355       H  0.45733355  0.12316401  0.44792372     0.38300
H4356       H  0.45713041  0.12080652  0.42535756     0.33700
C4357       C  0.44938242  0.07814151  0.54607011    -0.20000
C4358       C  0.43660232  0.06449775  0.54213026     0.36200
C4359       C  0.42224232  0.06137188  0.55415901    -0.26000
C4360       C  0.42058354  0.07142958  0.57011171     0.02700
C4361       C  0.43351193  0.08480343  0.57428902     0.27500
C4362       C  0.44774911  0.08814685  0.56210996    -0.25100
N4363       N  0.43831548  0.05390114  0.52591074    -0.82500
H4364       H  0.41241364  0.05090174  0.55123695     0.13300
C4365       C  0.40593022  0.06686115  0.58290581     0.02600
N4366       N  0.43239686  0.09454303  0.59108091    -0.81100
H4367       H  0.45760656  0.09856786  0.56508187     0.18100
C4368       C  0.40863821  0.05254466  0.59496387    -0.25900
C4369       C  0.39514435  0.04750961  0.60732885     0.36100
C4370       C  0.37861354  0.05715060  0.60767915    -0.19900
C4371       C  0.37590622  0.07146679  0.59549955    -0.25200
C4372       C  0.38932702  0.07623004  0.58286590     0.27500
H4373       H  0.42138783  0.04530387  0.59471669     0.13300
N4374       N  0.39829398  0.03282093  0.61967627    -0.82500
H4375       H  0.36312720  0.07865189  0.59556699     0.18100
N4376       N  0.38594683  0.09004738  0.56961599    -0.81100
H4377       H  0.41100397  0.02702601  0.61743652     0.33700
H4378       H  0.39853907  0.03820246  0.63274930     0.38200
H4379       H  0.37287902  0.09525444  0.57111993     0.33700
H4380       H  0.39483565  0.10073927  0.57206512     0.30400
H4381       H  0.44320299  0.10358097  0.59227020     0.33700
H4382       H  0.42063732  0.10237099  0.59082387     0.30400
H4383       H  0.45029490  0.04644760  0.52690404     0.38300
H4384       H  0.42776992  0.04453276  0.52495292     0.33700
C4385       C  0.54167807  0.08188185  0.45127743    -0.20000
C4386       C  0.54565704  0.06438821  0.44483134     0.36200
C4387       C  0.55939079  0.06210529  0.43193692    -0.26000
C4388       C  0.56946487  0.07690350  0.42567229     0.02700
C4389       C  0.56537912  0.09443987  0.43195857     0.27500
C4390       C  0.55129941  0.09679274  0.44455543    -0.25100
N4391       N  0.53568371  0.04905438  0.45141856    -0.82500
H4392       H  0.56250063  0.04867929  0.42694005     0.13300
C4393       C  0.58463580  0.07352817  0.41300854     0.02600
N4394       N  0.57580679  0.10965961  0.42585437    -0.81100
H4395       H  0.54811854  0.11019497  0.44955904     0.18100
C4396       C  0.58404296  0.08062292  0.39541858    -0.25900
C4397       C  0.59752976  0.07628839  0.38268459     0.36100
C4398       C  0.61181927  0.06469047  0.38777377    -0.19900
C4399       C  0.61256487  0.05795913  0.40548160    -0.25200
C4400       C  0.59923818  0.06243621  0.41821549     0.27500
H4401       H  0.57275001  0.08910047  0.39149364     0.13300
N4402       N  0.59644194  0.08309331  0.36450801    -0.82500
H4403       H  0.62366909  0.04923237  0.40941266     0.18100
N4404       N  0.60039583  0.05573964  0.43643132    -0.81100
H4405       H  0.58511199  0.09142497  0.36300519     0.33700
H4406       H  0.59450115  0.07204057  0.35590367     0.38200
H4407       H  0.61193818  0.04772909  0.43806393     0.33700
H4408       H  0.60196576  0.06689218  0.44498183     0.30400
H4409       H  0.57108155  0.12158985  0.43180270     0.33700
H4410       H  0.58907414  0.10785231  0.43040769     0.30400
H4411       H  0.53855135  0.04766477  0.46518964     0.38300
H4412       H  0.54010675  0.03718077  0.44513371     0.33700
C4413       C  0.61531010  0.05715244  0.60629450    -0.20000
C4414       C  0.60000878  0.04576357  0.60440076     0.36200
C4415       C  0.58666283  0.05002848  0.59155182    -0.26000
C4416       C  0.58810507  0.06549446  0.58073155     0.02700
C4417       C  0.60326925  0.07686439  0.58253357     0.27500
C4418       C  0.61663372  0.07268174  0.59539652    -0.25100
N4419       N  0.59783994  0.03011931  0.61572180    -0.82500
H4420       H  0.57488741  0.04141656  0.59014479     0.13300
C4421       C  0.57341457  0.06978665  0.56779149     0.02600
N4422       N  0.60512412  0.09246600  0.57109499    -0.81100
H4423       H  0.62834874  0.08139227  0.59660428     0.18100
C4424       C  0.56257986  0.08507154  0.57077928    -0.25900
C4425       C  0.54834065  0.08947648  0.55905906     0.36100
C4426       C  0.54478426  0.07817478  0.54398880    -0.19900
C4427       C  0.55571811  0.06292212  0.54100812    -0.25200
C4428       C  0.57006064  0.05866225  0.55270138     0.27500
H4429       H  0.56521899  0.09365519  0.58236371     0.13300
N4430       N  0.53811803  0.10561228  0.56272915    -0.82500
H4431       H  0.55301122  0.05432195  0.52945202     0.18100
N4432       N  0.58128249  0.04314655  0.54931070    -0.81100
H4433       H  0.53104679  0.10355418  0.57480405     0.33700
H4434       H  0.52854161  0.10820919  0.55271149     0.38200
H4435       H  0.57697862  0.03635375  0.53768098     0.33700
H4436       H  0.59435873  0.04782464  0.54663670     0.30400
H4437       H  0.61704746  0.09944110  0.57410569     0.33700
H4438       H  0.60639983  0.08786498  0.55778141     0.30400
H4439       H  0.59614535  0.03469446  0.62899524     0.38300
H4440       H  0.58604949  0.02307496  0.61236494     0.33700
loop_ 
_geom_bond_atom_site_label_1 
_geom_bond_atom_site_label_2 
_geom_bond_distance 
_geom_bond_site_symmetry_2 
_ccdc_geom_bond_type 
N1            C6   1.353       .  A
N1            C5   1.354       .  A
N1           H33   1.038       .  S
N2            C9   1.351       .  A
N2           C10   1.350       .  A
N3            C8   1.350       .  A
N3            C7   1.351       .  A
N3           H34   1.039       .  S
N4           C11   1.351       .  A
N4           C12   1.353       .  A
C5           C13   1.387       .  A
C5           C21   1.416       .  A
C6           C22   1.417       .  A
C6           C14   1.387       .  A
C7           C15   1.387       .  A
C7           C24   1.412       .  A
C8           C23   1.411       .  A
C8           C16   1.387       .  A
C9           C21   1.411       .  A
C9           C17   1.386       .  A
C10          C24   1.413       .  A
C10          C18   1.387       .  A
C11          C19   1.386       .  A
C11          C22   1.415       .  A
C12          C20   1.386       .  A
C12          C23   1.414       .  A
C13          C14   1.376       .  A
C13          H25   1.082       .  S
C14          H26   1.082       .  S
C15          C16   1.375       .  A
C15          H27   1.082       .  S
C16          H28   1.083       .  S
C17          C18   1.372       .  A
C17          H29   1.082       .  S
C18          H30   1.082       .  S
C19          C20   1.375       .  A
C19          H31   1.082       .  S
C20          H32   1.082       .  S
C21        C4385   1.487       .  S
C22        C4426   1.491       .  S
C23        C4357   1.490       .  S
C24        C4329   1.486       .  S
N35          C40   1.350       .  A
N35          C39   1.350       .  A
N35          H67   1.038       .  S
N36          C43   1.352       .  A
N36          C44   1.351       .  A
N37          C42   1.353       .  A
N37          C41   1.351       .  A
N37          H68   1.038       .  S
N38          C45   1.349       .  A
N38          C46   1.351       .  A
C39          C47   1.386       .  A
C39          C55   1.410       .  A
C40          C56   1.413       .  A
C40          C48   1.388       .  A
C41          C49   1.387       .  A
C41          C58   1.414       .  A
C42          C57   1.413       .  A
C42          C50   1.386       .  A
C43          C55   1.411       .  A
C43          C51   1.385       .  A
C44          C58   1.413       .  A
C44          C52   1.387       .  A
C45          C53   1.387       .  A
C45          C56   1.411       .  A
C46          C54   1.386       .  A
C46          C57   1.411       .  A
C47          C48   1.378       .  A
C47          H59   1.082       .  S
C48          H60   1.082       .  S
C49          C50   1.377       .  A
C49          H61   1.082       .  S
C50          H62   1.082       .  S
C51          C52   1.374       .  A
C51          H63   1.082       .  S
C52          H64   1.082       .  S
C53          C54   1.373       .  A
C53          H65   1.082       .  S
C54          H66   1.082       .  S
C55        C4301   1.485       .  S
C56        C4273   1.482       .  S
C57        C4217   1.488       .  S
C58        C4245   1.483       .  S
N69          C74   1.354       .  A
N69          C73   1.351       .  A
N69         H101   1.039       .  S
N70          C77   1.349       .  A
N70          C78   1.352       .  A
N71          C76   1.351       .  A
N71          C75   1.353       .  A
N71         H102   1.036       .  S
N72          C79   1.350       .  A
N72          C80   1.348       .  A
C73          C81   1.388       .  A
C73          C89   1.413       .  A
C74          C90   1.413       .  A
C74          C82   1.386       .  A
C75          C83   1.389       .  A
C75          C92   1.417       .  A
C76          C91   1.412       .  A
C76          C84   1.386       .  A
C77          C89   1.411       .  A
C77          C85   1.387       .  A
C78          C92   1.413       .  A
C78          C86   1.386       .  A
C79          C87   1.385       .  A
C79          C90   1.407       .  A
C80          C88   1.388       .  A
C80          C91   1.411       .  A
C81          C82   1.373       .  A
C81          H93   1.082       .  S
C82          H94   1.082       .  S
C83          C84   1.372       .  A
C83          H95   1.081       .  S
C84          H96   1.082       .  S
C85          C86   1.371       .  A
C85          H97   1.083       .  S
C86          H98   1.082       .  S
C87          C88   1.371       .  A
C87          H99   1.082       .  S
C88         H100   1.082       .  S
C89        C4161   1.477       .  S
C90        C4189   1.485       .  S
C91        C4133   1.476       .  S
C92        C4105   1.488       .  S
N103        C108   1.353       .  A
N103        C107   1.354       .  A
N103        H135   1.040       .  S
N104        C111   1.350       .  A
N104        C112   1.349       .  A
N105        C110   1.353       .  A
N105        C109   1.351       .  A
N105        H136   1.040       .  S
N106        C113   1.348       .  A
N106        C114   1.351       .  A
C107        C115   1.386       .  A
C107        C123   1.413       .  A
C108        C124   1.417       .  A
C108        C116   1.389       .  A
C109        C117   1.388       .  A
C109        C126   1.412       .  A
C110        C125   1.412       .  A
C110        C118   1.386       .  A
C111        C123   1.410       .  A
C111        C119   1.386       .  A
C112        C126   1.408       .  A
C112        C120   1.386       .  A
C113        C121   1.387       .  A
C113        C124   1.410       .  A
C114        C122   1.385       .  A
C114        C125   1.410       .  A
C115        C116   1.375       .  A
C115        H127   1.082       .  S
C116        H128   1.082       .  S
C117        C118   1.375       .  A
C117        H129   1.082       .  S
C118        H130   1.082       .  S
C119        C120   1.372       .  A
C119        H131   1.082       .  S
C120        H132   1.082       .  S
C121        C122   1.374       .  A
C121        H133   1.082       .  S
C122        H134   1.082       .  S
C123       C4006   1.486       .  S
C124       C4049   1.485       .  S
C125       C4077   1.487       .  S
C126       C4021   1.477       .  S
N137        C142   1.353       .  A
N137        C141   1.353       .  A
N137        H169   1.037       .  S
N138        C145   1.352       .  A
N138        C146   1.351       .  A
N139        C144   1.352       .  A
N139        C143   1.351       .  A
N139        H170   1.036       .  S
N140        C147   1.351       .  A
N140        C148   1.351       .  A
C141        C149   1.387       .  A
C141        C157   1.415       .  A
C142        C158   1.414       .  A
C142        C150   1.385       .  A
C143        C151   1.386       .  A
C143        C160   1.412       .  A
C144        C159   1.413       .  A
C144        C152   1.386       .  A
C145        C157   1.412       .  A
C145        C153   1.386       .  A
C146        C160   1.414       .  A
C146        C154   1.387       .  A
C147        C155   1.386       .  A
C147        C158   1.412       .  A
C148        C156   1.386       .  A
C148        C159   1.412       .  A
C149        C150   1.375       .  A
C149        H161   1.081       .  S
C150        H162   1.082       .  S
C151        C152   1.377       .  A
C151        H163   1.082       .  S
C152        H164   1.082       .  S
C153        C154   1.371       .  A
C153        H165   1.082       .  S
C154        H166   1.082       .  S
C155        C156   1.372       .  A
C155        H167   1.082       .  S
C156        H168   1.082       .  S
C157       C3965   1.487       .  S
C158       C3937   1.489       .  S
C159       C3894   1.485       .  S
C160       C3922   1.482       .  S
N171        C176   1.352       .  A
N171        C175   1.353       .  A
N171        H203   1.041       .  S
N172        C179   1.350       .  A
N172        C180   1.350       .  A
N173        C178   1.353       .  A
N173        C177   1.353       .  A
N173        H204   1.041       .  S
N174        C181   1.350       .  A
N174        C182   1.349       .  A
C175        C183   1.387       .  A
C175        C191   1.414       .  A
C176        C192   1.411       .  A
C176        C184   1.386       .  A
C177        C185   1.387       .  A
C177        C194   1.412       .  A
C178        C193   1.415       .  A
C178        C186   1.388       .  A
C179        C191   1.411       .  A
C179        C187   1.386       .  A
C180        C194   1.410       .  A
C180        C188   1.387       .  A
C181        C189   1.386       .  A
C181        C192   1.409       .  A
C182        C190   1.387       .  A
C182        C193   1.411       .  A
C183        C184   1.373       .  A
C183        H195   1.082       .  S
C184        H196   1.082       .  S
C185        C186   1.375       .  A
C185        H197   1.082       .  S
C186        H198   1.082       .  S
C187        C188   1.372       .  A
C187        H199   1.082       .  S
C188        H200   1.082       .  S
C189        C190   1.373       .  A
C189        H201   1.082       .  S
C190        H202   1.082       .  S
C191       C3853   1.490       .  S
C192       C3838   1.484       .  S
C193       C3769   1.487       .  S
C194       C3810   1.482       .  S
N205        C210   1.352   1_655  A
N205        C209   1.351       .  A
N205        H237   1.033       .  S
N206        C213   1.349       .  A
N206        C214   1.352   1_554  A
N207        C212   1.348   1_655  A
N207        C211   1.351       .  A
N207        H238   1.036       .  S
N208        C215   1.351       .  A
N208        C216   1.350   1_554  A
C209        C217   1.387       .  A
C209        C225   1.415       .  A
C210        C226   1.415       .  A
C210        C218   1.388       .  A
C211        C219   1.386       .  A
C211        C228   1.409       .  A
C212        C227   1.408       .  A
C212        C220   1.386       .  A
C213        C225   1.413       .  A
C213        C221   1.388       .  A
C214        C228   1.411       .  A
C214        C222   1.385       .  A
C215        C223   1.387       .  A
C215        C226   1.413       .  A
C216        C224   1.386   1_556  A
C216        C227   1.411       .  A
C217        C218   1.375   1_655  A
C217        H229   1.082       .  S
C218        H230   1.082       .  S
C219        C220   1.374   1_655  A
C219        H231   1.082       .  S
C220        H232   1.082       .  S
C221        C222   1.371   1_554  A
C221        H233   1.082       .  S
C222        H234   1.082       .  S
C223        C224   1.372       .  A
C223        H235   1.082       .  S
C224        H236   1.082   1_554  S
C225       C3685   1.478       .  S
C226       C3741   1.481       .  S
C227       C3713   1.476       .  S
C228       C3657   1.484       .  S
N239        C244   1.349       .  A
N239        C243   1.352       .  A
N239        H271   1.037       .  S
N240        C247   1.350       .  A
N240        C248   1.349   1_554  A
N241        C246   1.352       .  A
N241        C245   1.350       .  A
N241        H272   1.038       .  S
N242        C249   1.350   1_566  A
N242        C250   1.351   1_565  A
C243        C251   1.387       .  A
C243        C259   1.413       .  A
C244        C260   1.409       .  A
C244        C252   1.387       .  A
C245        C253   1.386       .  A
C245        C262   1.410       .  A
C246        C261   1.413       .  A
C246        C254   1.387       .  A
C247        C259   1.411       .  A
C247        C255   1.386       .  A
C248        C262   1.409       .  A
C248        C256   1.386       .  A
C249        C257   1.387       .  A
C249        C260   1.411   1_545  A
C250        C258   1.386       .  A
C250        C261   1.411   1_545  A
C251        C252   1.377       .  A
C251        H263   1.082       .  S
C252        H264   1.082       .  S
C253        C254   1.377       .  A
C253        H265   1.082       .  S
C254        H266   1.082       .  S
C255        C256   1.371   1_554  A
C255        H267   1.082       .  S
C256        H268   1.082       .  S
C257        C258   1.372   1_554  A
C257        H269   1.082       .  S
C258        H270   1.082       .  S
C259       C3614   1.485       .  S
C260       C3629   1.475   1_565  S
C261       C3573   1.487   1_565  S
C262       C3558   1.478       .  S
N273        C278   1.352       .  A
N273        C277   1.352   1_554  A
N273        H305   1.038       .  S
N274        C281   1.351       .  A
N274        C282   1.350   1_655  A
N275        C280   1.354   1_556  A
N275        C279   1.352       .  A
N275        H306   1.041       .  S
N276        C283   1.349   1_455  A
N276        C284   1.350       .  A
C277        C285   1.387       .  A
C277        C293   1.415       .  A
C278        C294   1.415       .  A
C278        C286   1.388       .  A
C279        C287   1.388       .  A
C279        C296   1.415       .  A
C280        C295   1.413       .  A
C280        C288   1.386       .  A
C281        C293   1.411       .  A
C281        C289   1.386       .  A
C282        C296   1.411       .  A
C282        C290   1.386       .  A
C283        C291   1.387       .  A
C283        C294   1.411       .  A
C284        C292   1.386       .  A
C284        C295   1.410       .  A
C285        C286   1.376   1_556  A
C285        H297   1.082       .  S
C286        H298   1.082       .  S
C287        C288   1.374   1_556  A
C287        H299   1.082       .  S
C288        H300   1.082       .  S
C289        C290   1.374   1_655  A
C289        H301   1.082       .  S
C290        H302   1.082       .  S
C291        C292   1.372   1_655  A
C291        H303   1.082       .  S
C292        H304   1.082       .  S
C293       C3433   1.485       .  S
C294       C3489   1.481       .  S
C295       C3517   1.490       .  S
C296       C3474   1.487       .  S
N307        C312   1.351   1_565  A
N307        C311   1.350   1_566  A
N307        H339   1.039       .  S
N308        C315   1.350       .  A
N308        C316   1.350       .  A
N309        C314   1.352       .  A
N309        C313   1.351   1_556  A
N309        H340   1.038       .  S
N310        C317   1.351       .  A
N310        C318   1.350       .  A
C311        C319   1.387       .  A
C311        C327   1.412   1_545  A
C312        C328   1.410   1_545  A
C312        C320   1.386       .  A
C313        C321   1.387       .  A
C313        C330   1.414       .  A
C314        C329   1.414       .  A
C314        C322   1.387       .  A
C315        C327   1.410       .  A
C315        C323   1.386       .  A
C316        C330   1.412       .  A
C316        C324   1.387       .  A
C317        C325   1.385       .  A
C317        C328   1.411       .  A
C318        C326   1.387       .  A
C318        C329   1.412       .  A
C319        C320   1.376   1_554  A
C319        H331   1.082       .  S
C320        H332   1.082       .  S
C321        C322   1.378   1_554  A
C321        H333   1.082       .  S
C322        H334   1.082       .  S
C323        C324   1.371       .  A
C323        H335   1.082       .  S
C324        H336   1.082       .  S
C325        C326   1.370       .  A
C325        H337   1.082       .  S
C326        H338   1.082       .  S
C327       C3405   1.483   1_565  S
C328       C3377   1.487   1_565  S
C329       C3334   1.485       .  S
C330       C3349   1.484       .  S
N341        C346   1.351       .  A
N341        C345   1.351       .  A
N341        H373   1.038       .  S
N342        C349   1.350   1_465  A
N342        C350   1.349   1_565  A
N343        C348   1.351       .  A
N343        C347   1.352       .  A
N343        H374   1.038       .  S
N344        C351   1.352   1_455  A
N344        C352   1.352       .  A
C345        C353   1.385       .  A
C345        C361   1.410   1_565  A
C346        C362   1.412       .  A
C346        C354   1.387       .  A
C347        C355   1.387       .  A
C347        C364   1.414   1_565  A
C348        C363   1.412       .  A
C348        C356   1.386       .  A
C349        C361   1.411       .  A
C349        C357   1.386       .  A
C350        C364   1.412       .  A
C350        C358   1.387       .  A
C351        C359   1.386       .  A
C351        C362   1.414       .  A
C352        C360   1.386       .  A
C352        C363   1.413       .  A
C353        C354   1.376       .  A
C353        H365   1.082       .  S
C354        H366   1.082       .  S
C355        C356   1.377       .  A
C355        H367   1.082       .  S
C356        H368   1.082       .  S
C357        C358   1.372   1_655  A
C357        H369   1.082       .  S
C358        H370   1.082       .  S
C359        C360   1.373   1_655  A
C359        H371   1.082       .  S
C360        H372   1.082       .  S
C361       C3237   1.486       .  S
C362       C3209   1.488       .  S
C363       C3278   1.489       .  S
C364       C3293   1.485       .  S
N375        C380   1.350       .  A
N375        C379   1.352       .  A
N375        H407   1.039       .  S
N376        C383   1.350       .  A
N376        C384   1.349   1_455  A
N377        C382   1.352       .  A
N377        C381   1.349       .  A
N377        H408   1.038       .  S
N378        C385   1.350   1_565  A
N378        C386   1.351   1_465  A
C379        C387   1.387       .  A
C379        C395   1.413       .  A
C380        C396   1.411   1_565  A
C380        C388   1.386       .  A
C381        C389   1.387       .  A
C381        C398   1.410       .  A
C382        C397   1.412       .  A
C382        C390   1.387       .  A
C383        C395   1.410       .  A
C383        C391   1.386       .  A
C384        C398   1.408       .  A
C384        C392   1.386       .  A
C385        C393   1.388       .  A
C385        C396   1.412       .  A
C386        C394   1.385       .  A
C386        C397   1.410   1_545  A
C387        C388   1.379       .  A
C387        H399   1.082       .  S
C388        H400   1.082       .  S
C389        C390   1.377       .  A
C389        H401   1.082       .  S
C390        H402   1.082       .  S
C391        C392   1.371   1_455  A
C391        H403   1.082       .  S
C392        H404   1.082       .  S
C393        C394   1.371   1_455  A
C393        H405   1.082       .  S
C394        H406   1.082       .  S
C395       C3138   1.487       .  S
C396       C3194   1.483       .  S
C397       C3166   1.487   1_565  S
C398       C3097   1.476       .  S
C409        N410   1.358       .  A
C409        N414   1.364       .  A
C409       C3041   1.486       .  S
N410        C411   1.355       .  A
C411        N412   1.357       .  A
C411       C4202   1.476       .  S
N412        C413   1.359       .  A
C413        N414   1.363       .  A
C413       C3069   1.484       .  S
C415        N416   1.361       .  A
C415        N420   1.364       .  A
C415       C3026   1.489       .  S
N416        C417   1.360       .  A
C417        N418   1.356       .  A
C417       C4413   1.489       .  S
N418        C419   1.357       .  A
C419        N420   1.360       .  A
C419       C3082   1.481       .  S
C421        N422   1.361       .  A
C421        N426   1.358       .  A
C421       C2957   1.480       .  S
N422        C423   1.360       .  A
C423        N424   1.359       .  A
C423       C4090   1.493       .  S
N424        C425   1.356       .  A
C425        N426   1.354       .  A
C425       C2985   1.476       .  S
C427        N428   1.357       .  A
C427        N432   1.360       .  A
C427       C2942   1.481       .  S
N428        C429   1.355       .  A
C429        N430   1.357       .  A
C429       C4314   1.481       .  S
N430        C431   1.359       .  A
C431        N432   1.360       .  A
C431       C2998   1.473       .  S
C433        N434   1.361       .  A
C433        N438   1.364       .  A
C433       C2873   1.492       .  S
N434        C435   1.357       .  A
C435        N436   1.355       .  A
C435       C3866   1.490       .  S
N436        C437   1.357       .  A
C437        N438   1.363       .  A
C437       C2901   1.490       .  S
C439        N440   1.363       .  A
C439        N444   1.362       .  A
C439       C2858   1.490       .  S
N440        C441   1.359       .  A
C441        N442   1.357       .  A
C441       C3978   1.481       .  S
N442        C443   1.356       .  A
C443        N444   1.359       .  A
C443       C2914   1.478       .  S
C445        N446   1.358       .  A
C445        N450   1.358       .  A
C445       C2789   1.487       .  S
N446        C447   1.354       .  A
C447        N448   1.357       .  A
C447       C4062   1.471       .  S
N448        C449   1.359       .  A
C449        N450   1.358       .  A
C449       C2817   1.480       .  S
C451        N452   1.361       .  A
C451        N456   1.363       .  A
C451       C2761   1.493       .  S
N452        C453   1.356       .  A
C453        N454   1.354       .  A
C453       C2830   1.470       .  S
N454        C455   1.355       .  A
C455        N456   1.358       .  A
C455       C4258   1.483       .  S
C457        N458   1.361       .  A
C457        N462   1.357       .  A
C457       C2705   1.482       .  S
N458        C459   1.359       .  A
C459        N460   1.356       .  A
C459       C2733   1.474       .  S
N460        C461   1.353       .  A
C461        N462   1.353       .  A
C461       C4146   1.471       .  S
C463        N464   1.363       .  A
C463        N468   1.361       .  A
C463       C2677   1.490       .  S
N464        C465   1.360       .  A
C465        N466   1.356       .  A
C465       C2746   1.480       .  S
N466        C467   1.353       .  A
C467        N468   1.355       .  A
C467       C4398   1.475       .  S
C469        N470   1.358       .  A
C469        N474   1.361       .  A
C469       C2634   1.481       .  S
N470        C471   1.355       .  A
C471        N472   1.353       .  A
C471       C4034   1.469       .  S
N472        C473   1.356       .  A
C473        N474   1.360       .  A
C473       C2649   1.479       .  S
C475        N476   1.363       .  A
C475        N480   1.360       .  A
C475       C2593   1.484       .  S
N476        C477   1.360       .  A
C477        N478   1.354       .  A
C477       C2662   1.470       .  S
N478        C479   1.353       .  A
C479        N480   1.356       .  A
C479       C4286   1.477       .  S
C481        N482   1.356       .  A
C481        N486   1.358       .  A
C481       C2537   1.479       .  S
N482        C483   1.354       .  A
C483        N484   1.356       .  A
C483       C4174   1.479       .  S
N484        C485   1.357       .  A
C485        N486   1.358       .  A
C485       C2565   1.470       .  S
C487        N488   1.362       .  A
C487        N492   1.360       .  A
C487       C2509   1.481       .  S
N488        C489   1.357       .  A
C489        N490   1.354       .  A
C489       C4370   1.479       .  S
N490        C491   1.356       .  A
C491        N492   1.358       .  A
C491       C2578   1.477       .  S
C493        N494   1.357       .  A
C493        N498   1.363       .  A
C493       C2453   1.490       .  S
N494        C495   1.352       .  A
C495        N496   1.355       .  A
C495       C3797   1.471       .  S
N496        C497   1.359       .  A
C497        N498   1.363       .  A
C497       C2481   1.483       .  S
C499        N500   1.358       .  A
C499        N504   1.361       .  A
C499       C2438   1.480       .  S
N500        C501   1.356       .  A
C501        N502   1.357       .  A
C501       C3950   1.484       .  S
N502        C503   1.358       .  A
C503        N504   1.359       .  A
C503       C2494   1.475       .  S
C505        N506   1.363       .  A
C505        N510   1.360       .  A
C505       C2369   1.492       .  S
N506        C507   1.362       .  A
C507        N508   1.358       .  A
C507       C2397   1.486       .  S
N508        C509   1.355       .  A
C509        N510   1.357       .  A
C509       C3825   1.479       .  S
C511        N512   1.355       .  A
C511        N516   1.365       .  A
C511       C2341   1.482       .  S
N512        C513   1.351       .  A
C513        N514   1.353       .  A
C513       C3909   1.473       .  S
N514        C515   1.358       .  A
C515        N516   1.364       .  A
C515       C2410   1.486       .  S
C517        N518   1.358       .  A
C517        N522   1.362       .  A
C517       C2298   1.479       .  S
N518        C519   1.357       .  A
C519        N520   1.356       .  A
C519       C4118   1.484       .  S
N520        C521   1.358       .  A
C521        N522   1.360       .  A
C521       C2313   1.475       .  S
C523        N524   1.364       .  A
C523        N528   1.359       .  A
C523       C2257   1.494       .  S
N524        C525   1.361       .  A
C525        N526   1.355       .  A
C525       C2326   1.478       .  S
N526        C527   1.354       .  A
C527        N528   1.355       .  A
C527       C4342   1.485       .  S
C529        N530   1.364       .  A
C529        N534   1.367       .  A
C529       C2214   1.498       .  S
N530        C531   1.358       .  A
C531        N532   1.352       .  A
C531       C3993   1.485       .  S
N532        C533   1.355       .  A
C533        N534   1.361       .  A
C533       C2229   1.482       .  S
C535        N536   1.361       .  A
C535        N540   1.361       .  A
C535       C2186   1.475       .  S
N536        C537   1.358       .  A
C537        N538   1.357       .  A
C537       C2242   1.483       .  S
N538        C539   1.355       .  A
C539        N540   1.359       .  A
C539       C4230   1.492       .  S
C541        N542   1.359       .  A
C541        N546   1.365       .  A
C541       C2130   1.488       .  S
N542        C543   1.354       .  A
C543        N544   1.353       .  A
C543       C3782   1.477       .  S
N544        C545   1.356       .  A
C545        N546   1.363       .  A
C545       C2145   1.485       .  S
C547        N548   1.362       .  A
C547        N552   1.360       .  A
C547       C2102   1.492       .  S
N548        C549   1.360       .  A
C549        N550   1.358       .  A
C549       C2158   1.484       .  S
N550        C551   1.356       .  A
C551        N552   1.357       .  A
C551       C3881   1.487       .  S
C553        N554   1.361       .  A
C553        N558   1.358       .  A
C553       C2046   1.483       .  S
N554        C555   1.359       .  A
C555        N556   1.358       .  A
C555       C2061   1.471       .  S
N556        C557   1.357       .  A
C557        N558   1.354       .  A
C557       C3530   1.488       .  S
C559        N560   1.356       .  A
C559        N564   1.360       .  A
C559       C2005   1.479       .  S
N560        C561   1.355       .  A
C561        N562   1.357       .  A
C561       C3754   1.477       .  S
N562        C563   1.358       .  A
C563        N564   1.360       .  A
C563       C2074   1.480       .  S
C565        N566   1.359       .  A
C565        N570   1.360       .  A
C565       C1949   1.477       .  S
N566        C567   1.357       .  A
C567        N568   1.353       .  A
C567       C3418   1.481       .  S
N568        C569   1.353       .  A
C569        N570   1.357       .  A
C569       C1977   1.468       .  S
C571        N572   1.358       .  A
C571        N576   1.357       .  A
C571       C1921   1.481       .  S
N572        C573   1.354       .  A
C573        N574   1.353       .  A
C573       C3642   1.473       .  S
N574        C575   1.355       .  A
C575        N576   1.355       .  A
C575       C1990   1.471       .  S
C577        N578   1.363       .  A
C577        N582   1.359       .  A
C577       C1865   1.482       .  S
N578        C579   1.362       .  A
C579        N580   1.359       .  A
C579       C1893   1.484       .  S
N580        C581   1.354       .  A
C581        N582   1.354       .  A
C581       C3390   1.472       .  S
C583        N584   1.360       .  A
C583        N588   1.364       .  A
C583       C1837   1.495       .  S
N584        C585   1.356       .  A
C585        N586   1.355       .  A
C585       C3586   1.480       .  S
N586        C587   1.357       .  A
C587        N588   1.359       .  A
C587       C1906   1.477       .  S
C589        N590   1.360       .  A
C589        N594   1.356       .  A
C589       C1781   1.482       .  S
N590        C591   1.360       .  A
C591        N592   1.360       .  A
C591       C1809   1.482       .  S
N592        C593   1.357       .  A
C593        N594   1.353       .  A
C593       C3362   1.478       .  S
C595        N596   1.360       .  A
C595        N600   1.364       .  A
C595       C1753   1.483       .  S
N596        C597   1.353       .  A
C597        N598   1.351       .  A
C597       C3601   1.464       .  S
N598        C599   1.357       .  A
C599        N600   1.361       .  A
C599       C1822   1.485       .  S
C601        N602   1.361       .  A
C601        N606   1.360       .  A
C601       C1710   1.491       .  S
N602        C603   1.358       .  A
C603        N604   1.355       .  A
C603       C1738   1.475       .  S
N604        C605   1.354       .  A
C605        N606   1.358       .  A
C605       C3502   1.476       .  S
C607        N608   1.362       .  A
C607        N612   1.358       .  A
C607       C1669   1.480       .  S
N608        C609   1.360       .  A
C609        N610   1.356       .  A
C609       C1725   1.480       .  S
N610        C611   1.353       .  A
C611        N612   1.353       .  A
C611       C3698   1.473       .  S
C613        N614   1.362       .  A
C613        N618   1.362       .  A
C613       C1626   1.485       .  S
N614        C615   1.357       .  A
C615        N616   1.356       .  A
C615       C3153   1.483       .  S
N616        C617   1.358       .  A
C617        N618   1.359       .  A
C617       C1641   1.486       .  S
C619        N620   1.358       .  A
C619        N624   1.360       .  A
C619       C1585   1.482       .  S
N620        C621   1.353       .  A
C621        N622   1.355       .  A
C621       C3250   1.481       .  S
N622        C623   1.359       .  A
C623        N624   1.359       .  A
C623       C1654   1.480       .  S
C625        N626   1.360       .  A
C625        N630   1.360       .  A
C625       C1542   1.484       .  S
N626        C627   1.357       .  A
C627        N628   1.356       .  A
C627       C3125   1.477       .  S
N628        C629   1.357       .  A
C629        N630   1.358       .  A
C629       C1570   1.484       .  S
C631        N632   1.360       .  A
C631        N636   1.366       .  A
C631       C1501   1.499       .  S
N632        C633   1.356       .  A
C633        N634   1.354       .  A
C633       C3265   1.485       .  S
N634        C635   1.358       .  A
C635        N636   1.363       .  A
C635       C1557   1.490       .  S
C637        N638   1.363       .  A
C637        N642   1.363       .  A
C637       C1445   1.483       .  S
N638        C639   1.358       .  A
C639        N640   1.353       .  A
C639       C1473   1.474       .  S
N640        C641   1.352       .  A
C641        N642   1.359       .  A
C641       C3446   1.486       .  S
C643        N644   1.358       .  A
C643        N648   1.358       .  A
C643       C1417   1.483       .  S
N644        C645   1.357       .  A
C645        N646   1.360       .  A
C645       C1486   1.476       .  S
N646        C647   1.359       .  A
C647        N648   1.358       .  A
C647       C3670   1.477       .  S
C649        N650   1.365       .  A
C649        N654   1.357       .  A
C649       C1361   1.493       .  S
N650        C651   1.362       .  A
C651        N652   1.356       .  A
C651       C1389   1.476       .  S
N652        C653   1.353       .  A
C653        N654   1.353       .  A
C653       C3110   1.473       .  S
C655        N656   1.366       .  A
C655        N660   1.358       .  A
C655       C1333   1.486       .  S
N656        C657   1.365       .  A
C657        N658   1.360       .  A
C657       C1402   1.497       .  S
N658        C659   1.352       .  A
C659        N660   1.351       .  A
C659       C3222   1.468       .  S
C661        N662   1.358       .  A
C661        N666   1.358       .  A
C661       C1290   1.478       .  S
N662        C663   1.357       .  A
C663        N664   1.355       .  A
C663       C3321   1.485       .  S
N664        C665   1.357       .  A
C665        N666   1.356       .  A
C665       C1305   1.479       .  S
C667        N668   1.357       .  A
C667        N672   1.356       .  A
C667       C1249   1.472       .  S
N668        C669   1.357       .  A
C669        N670   1.357       .  A
C669       C3545   1.478       .  S
N670        C671   1.357       .  A
C671        N672   1.355       .  A
C671       C1318   1.474       .  S
O673       Mg675   2.139       .  S
O673       Mg681   2.157       .  S
O673        C708   1.236       .  S
C674        H713   1.081       .  S
C674        O687   1.235       .  S
C674        O711   1.268       .  A
Mg675       O704   2.153       .  S
Mg675       O719   2.304       .  S
Mg675       O715   2.257       .  S
Mg675       O686   2.300       .  S
O676       Mg718   2.162       .  S
O676       Mg701   2.147       .  S
O676        C697   1.236       .  S
O677        C708   1.269       .  A
O677       Mg701   2.295       .  S
C678       C1514   1.496       .  S
C678        O680   1.274       .  A
C678        O692   1.276       .  A
O679        C707   1.269       .  A
O679       Mg681   2.295       .  S
O680       Mg712   2.267       .  S
Mg681       O687   2.123       .  S
Mg681       O695   2.243       .  S
Mg681       O683   2.289       .  S
C682       C2929   1.491       .  S
C682        O720   1.272       .  A
C682        O688   1.276       .  A
O683        C690   1.273       .  A
H684        C697   1.081       .  S
C685        H710   1.081       .  S
C685        O699   1.235       .  S
C685        O700   1.269       .  A
O686        C709   1.270       .  A
O687       Mg701   2.156       .  S
O688       Mg718   2.291       .  S
C689       C1221   1.493       .  S
C689        O702   1.275       .  A
C689        O694   1.274       .  A
C690       C2382   1.497       .  S
C690        O717   1.275       .  A
Mg691       O698   2.143       .  S
Mg691       O699   2.156       .  S
Mg691       O692   2.313       .  S
Mg691       O693   2.300       .  S
Mg691       O720   2.268       .  S
O693        C697   1.271       .  A
O694       Mg701   2.290       .  S
O695        C714   1.271       .  A
O696        C716   1.274       .  A
O696       Mg712   2.298       .  S
O698       Mg712   2.155       .  S
O698        C709   1.236       .  S
O699       Mg718   2.147       .  S
O700       Mg712   2.295       .  S
Mg701       O717   2.292       .  S
O702       Mg718   2.280       .  S
H703        C708   1.081       .  S
O704       Mg712   2.139       .  S
O704        C707   1.235       .  S
H705        C707   1.081       .  S
H706        C709   1.081       .  S
O711       Mg718   2.290       .  S
C714       C1277   1.486       .  S
C714        O719   1.275       .  A
O715        C716   1.272       .  A
C716       C2550   1.489       .  S
O721       Mg723   2.142       .  S
O721       Mg729   2.158       .  S
O721        C756   1.236       .  S
C722        H761   1.081       .  S
C722        O735   1.236       .  S
C722        O759   1.271       .  A
Mg723       O752   2.155       .  S
Mg723       O767   2.302       .  S
Mg723       O763   2.262       .  S
Mg723       O734   2.294       .  S
O724       Mg766   2.156       .  S
O724       Mg749   2.141       .  S
O724        C745   1.237       .  S
O725        C756   1.270       .  A
O725       Mg749   2.300       .  S
C726       C3054   1.481       .  S
C726        O728   1.272       .  A
C726        O740   1.274       .  A
O727        C755   1.267       .  A
O727       Mg729   2.291       .  S
O728       Mg760   2.265       .  S
Mg729       O735   2.144       .  S
Mg729       O743   2.266       .  S
Mg729       O731   2.280       .  S
C730       C1346   1.488       .  S
C730        O768   1.271       .  A
C730        O736   1.276       .  A
O731        C738   1.273       .  A
H732        C745   1.081       .  S
C733        H758   1.081       .  S
C733        O747   1.235       .  S
C733        O748   1.268       .  A
O734        C757   1.269       .  A
O735       Mg749   2.155       .  S
O736       Mg766   2.296       .  S
C737       C2970   1.480       .  S
C737        O750   1.271       .  A
C737        O742   1.274       .  A
C738       C1430   1.490       .  S
C738        O765   1.272       .  A
Mg739       O746   2.130       .  S
Mg739       O747   2.149       .  S
Mg739       O740   2.298       .  S
Mg739       O741   2.299       .  S
Mg739       O768   2.256       .  S
O741        C745   1.270       .  A
O742       Mg749   2.291       .  S
O743        C762   1.272       .  A
O744        C764   1.273       .  A
O744       Mg760   2.271       .  S
O746       Mg760   2.149       .  S
O746        C757   1.235       .  S
O747       Mg766   2.121       .  S
O748       Mg760   2.288       .  S
Mg749       O765   2.272       .  S
O750       Mg766   2.254       .  S
H751        C756   1.081       .  S
O752       Mg760   2.138       .  S
O752        C755   1.234       .  S
H753        C755   1.081       .  S
H754        C757   1.081       .  S
O759       Mg766   2.302       .  S
C762       C2886   1.493       .  S
C762        O767   1.276       .  A
O763        C764   1.272       .  A
C764       C1262   1.485       .  S
O769       Mg771   2.127       .  S
O769       Mg777   2.145       .  S
O769        C804   1.235       .  S
C770        H809   1.081       .  S
C770        O783   1.236       .  S
C770        O807   1.269       .  A
Mg771       O800   2.155       .  S
Mg771       O815   2.296       .  S
Mg771       O811   2.246       .  S
Mg771       O782   2.296       .  S
O772       Mg814   2.155       .  S
O772       Mg797   2.140       .  S
O772        C793   1.235       .  S
O773        C804   1.269       .  A
O773       Mg797   2.294       .  S
C774       C2845   1.490       .  S
C774        O776   1.272       .  A
C774        O788   1.276       .  A
O775        C803   1.271       .  A
O775       Mg777   2.300       .  S
O776       Mg808   2.261       .  S
Mg777       O783   2.128       .  S
Mg777       O791   2.241       .  S
Mg777       O779   2.298       .  S
C778       C1682   1.487       .  S
C778        O816   1.272       .  A
C778        O784   1.272       .  A
O779        C786   1.274       .  A
H780        C793   1.081       .  S
C781        H806   1.081       .  S
C781        O795   1.236       .  S
C781        O796   1.269       .  A
O782        C805   1.269       .  A
O783       Mg797   2.148       .  S
O784       Mg814   2.285       .  S
C785       C2802   1.490       .  S
C785        O798   1.271       .  A
C785        O790   1.275       .  A
C786       C1374   1.478       .  S
C786        O813   1.273       .  A
Mg787       O794   2.134       .  S
Mg787       O795   2.159       .  S
Mg787       O788   2.315       .  S
Mg787       O789   2.296       .  S
Mg787       O816   2.255       .  S
O789        C793   1.269       .  A
O790       Mg797   2.291       .  S
O791        C810   1.269       .  A
O792        C812   1.274       .  A
O792       Mg808   2.295       .  S
O794       Mg808   2.148       .  S
O794        C805   1.235       .  S
O795       Mg814   2.142       .  S
O796       Mg808   2.297       .  S
Mg797       O813   2.269       .  S
O798       Mg814   2.257       .  S
H799        C804   1.081       .  S
O800       Mg808   2.143       .  S
O800        C803   1.237       .  S
H801        C803   1.081       .  S
H802        C805   1.081       .  S
O807       Mg814   2.293       .  S
C810       C2718   1.486       .  S
C810        O815   1.275       .  A
O811        C812   1.271       .  A
C812       C1766   1.482       .  S
O817       Mg819   2.134       .  S
O817       Mg825   2.147       .  S
O817        C852   1.236       .  S
C818        H857   1.081       .  S
C818        O831   1.236       .  S
C818        O855   1.269       .  A
Mg819       O848   2.153       .  S
Mg819       O863   2.289       .  S
Mg819       O859   2.253       .  S
Mg819       O830   2.295       .  S
O820       Mg862   2.158       .  S
O820       Mg845   2.144       .  S
O820        C841   1.237       .  S
O821        C852   1.270       .  A
O821       Mg845   2.298       .  S
C822       C2621   1.482       .  S
C822        O824   1.273       .  A
C822        O836   1.275       .  A
O823        C851   1.271       .  A
O823       Mg825   2.301       .  S
O824       Mg856   2.266       .  S
Mg825       O831   2.127       .  S
Mg825       O839   2.267       .  S
Mg825       O827   2.304       .  S
C826       C1598   1.479       .  S
C826        O864   1.272       .  A
C826        O832   1.272       .  A
O827        C834   1.276       .  A
H828        C841   1.081       .  S
C829        H854   1.081       .  S
C829        O843   1.234       .  S
C829        O844   1.268       .  A
O830        C853   1.270       .  A
O831       Mg845   2.150       .  S
O832       Mg862   2.271       .  S
C833       C3013   1.494       .  S
C833        O846   1.272       .  A
C833        O838   1.274       .  A
C834       C1850   1.484       .  S
C834        O861   1.274       .  A
Mg835       O842   2.129       .  S
Mg835       O843   2.152       .  S
Mg835       O836   2.296       .  S
Mg835       O837   2.298       .  S
Mg835       O864   2.259       .  S
O837        C841   1.271       .  A
O838       Mg845   2.298       .  S
O839        C858   1.272       .  A
O840        C860   1.274       .  A
O840       Mg856   2.287       .  S
O842       Mg856   2.157       .  S
O842        C853   1.236       .  S
O843       Mg862   2.132       .  S
O844       Mg856   2.292       .  S
Mg845       O861   2.276       .  S
O846       Mg862   2.264       .  S
H847        C852   1.081       .  S
O848       Mg856   2.144       .  S
O848        C851   1.237       .  S
H849        C851   1.081       .  S
H850        C853   1.081       .  S
O855       Mg862   2.288       .  S
C858       C2466   1.491       .  S
C858        O863   1.274       .  A
O859        C860   1.270       .  A
C860       C1458   1.488       .  S
C865        N866   1.362       .  A
C865        N870   1.358       .  A
C865       C1178   1.480       .  S
N866        C867   1.359       .  A
C867        N868   1.357       .  A
C867       C1206   1.476       .  S
N868        C869   1.355       .  A
C869        N870   1.354       .  A
C869       C3461   1.476       .  S
C871        N872   1.362       .  A
C871        N876   1.358       .  A
C871       C1234   1.488       .  S
N872        C873   1.360       .  A
C873        N874   1.357       .  A
C873       C1193   1.486       .  S
N874        C875   1.355       .  A
C875        N876   1.356       .  A
C875       C3726   1.477       .  S
O877       Mg879   2.141       .  S
O877       Mg885   2.151       .  S
O877        C912   1.236       .  S
C878        H917   1.081       .  S
C878        O891   1.236       .  S
C878        O915   1.270       .  A
Mg879       O908   2.154       .  S
Mg879       O923   2.312       .  S
Mg879       O919   2.260       .  S
Mg879       O890   2.297       .  S
O880       Mg922   2.155       .  S
O880       Mg905   2.148       .  S
O880        C901   1.236       .  S
O881        C912   1.270       .  A
O881       Mg905   2.300       .  S
C882       C1165   1.485       .  S
C882        O884   1.273       .  A
C882        O896   1.274       .  A
O883        C911   1.269       .  A
O883       Mg885   2.295       .  S
O884       Mg916   2.263       .  S
Mg885       O891   2.149       .  S
Mg885       O899   2.265       .  S
Mg885       O887   2.288       .  S
C886       C2606   1.491       .  S
C886        O924   1.273       .  A
C886        O892   1.277       .  A
O887        C894   1.273       .  A
H888        C901   1.081       .  S
C889        H914   1.081       .  S
C889        O903   1.236       .  S
C889        O904   1.270       .  A
O890        C913   1.269       .  A
O891       Mg905   2.157       .  S
O892       Mg922   2.315       .  S
C893       C1137   1.490       .  S
C893        O906   1.273       .  A
C893        O898   1.277       .  A
C894       C2522   1.488       .  S
C894        O921   1.274       .  A
Mg895       O902   2.143       .  S
Mg895       O903   2.151       .  S
Mg895       O896   2.295       .  S
Mg895       O897   2.299       .  S
Mg895       O924   2.268       .  S
O897        C901   1.270       .  A
O898       Mg905   2.316       .  S
O899        C918   1.273       .  A
O900        C920   1.277       .  A
O900       Mg916   2.310       .  S
O902       Mg916   2.154       .  S
O902        C913   1.235       .  S
O903       Mg922   2.136       .  S
O904       Mg916   2.298       .  S
Mg905       O921   2.272       .  S
O906       Mg922   2.263       .  S
H907        C912   1.081       .  S
O908       Mg916   2.142       .  S
O908        C911   1.235       .  S
H909        C911   1.081       .  S
H910        C913   1.081       .  S
O915       Mg922   2.300       .  S
C918       C1878   1.489       .  S
C918        O923   1.276       .  A
O919        C920   1.271       .  A
C920       C2117   1.494       .  S
O925       Mg927   2.132       .  S
O925       Mg933   2.147       .  S
O925        C960   1.235       .  S
C926        H965   1.081       .  S
C926        O939   1.236       .  S
C926        O963   1.270       .  A
Mg927       O956   2.155       .  S
Mg927       O971   2.300       .  S
Mg927       O967   2.254       .  S
Mg927       O938   2.294       .  S
O928       Mg970   2.153       .  S
O928       Mg953   2.126       .  S
O928        C949   1.236       .  S
O929        C960   1.269       .  A
O929       Mg953   2.294       .  S
C930       C2018   1.483       .  S
C930        O932   1.272       .  A
C930        O944   1.274       .  A
O931        C959   1.270       .  A
O931       Mg933   2.297       .  S
O932       Mg964   2.255       .  S
Mg933       O939   2.135       .  S
Mg933       O947   2.255       .  S
Mg933       O935   2.303       .  S
C934       C2774   1.479       .  S
C934        O972   1.273       .  A
C934        O940   1.274       .  A
O935        C942   1.275       .  A
H936        C949   1.081       .  S
C937        H962   1.081       .  S
C937        O951   1.236       .  S
C937        O952   1.270       .  A
O938        C961   1.269       .  A
O939       Mg953   2.152       .  S
O940       Mg970   2.293       .  S
C941       C1529   1.482       .  S
C941        O954   1.272       .  A
C941        O946   1.273       .  A
C942       C2285   1.487       .  S
C942        O969   1.269       .  A
Mg943       O950   2.135       .  S
Mg943       O951   2.150       .  S
Mg943       O944   2.294       .  S
Mg943       O945   2.293       .  S
Mg943       O972   2.265       .  S
O945        C949   1.269       .  A
O946       Mg953   2.284       .  S
O947        C966   1.272       .  A
O948        C968   1.276       .  A
O948       Mg964   2.304       .  S
O950       Mg964   2.151       .  S
O950        C961   1.235       .  S
O951       Mg970   2.138       .  S
O952       Mg964   2.299       .  S
Mg953       O969   2.240       .  S
O954       Mg970   2.267       .  S
H955        C960   1.081       .  S
O956       Mg964   2.135       .  S
O956        C959   1.236       .  S
H957        C959   1.081       .  S
H958        C961   1.081       .  S
O963       Mg970   2.295       .  S
C966       C1794   1.490       .  S
C966        O971   1.274       .  A
O967        C968   1.271       .  A
C968       C2354   1.489       .  S
O973       Mg975   2.142       .  S
O973       Mg981   2.157       .  S
O973       C1008   1.236       .  S
C974       H1013   1.081       .  S
C974        O987   1.235       .  S
C974       O1011   1.269       .  A
Mg975      O1004   2.155       .  S
Mg975      O1019   2.300       .  S
Mg975      O1015   2.267       .  S
Mg975       O986   2.296       .  S
O976      Mg1018   2.149       .  S
O976      Mg1001   2.132       .  S
O976        C997   1.235       .  S
O977       C1008   1.270       .  A
O977      Mg1001   2.299       .  S
C978       C2201   1.495       .  S
C978        O980   1.274       .  A
C978        O992   1.275       .  A
O979       C1007   1.269       .  A
O979       Mg981   2.294       .  S
O980      Mg1012   2.272       .  S
Mg981       O987   2.140       .  S
Mg981       O995   2.261       .  S
Mg981       O983   2.286       .  S
C982       C1697   1.494       .  S
C982       O1020   1.274       .  A
C982        O988   1.274       .  A
O983        C990   1.273       .  A
H984        C997   1.081       .  S
C985       H1010   1.081       .  S
C985        O999   1.235       .  S
C985       O1000   1.269       .  A
O986       C1009   1.269       .  A
O987      Mg1001   2.156       .  S
O988      Mg1018   2.295       .  S
C989       C2425   1.485       .  S
C989       O1002   1.271       .  A
C989        O994   1.274       .  A
C990       C1934   1.479       .  S
C990       O1017   1.270       .  A
Mg991       O998   2.145       .  S
Mg991       O999   2.152       .  S
Mg991       O992   2.298       .  S
Mg991       O993   2.297       .  S
Mg991      O1020   2.276       .  S
O993        C997   1.269       .  A
O994      Mg1001   2.301       .  S
O995       C1014   1.272       .  A
O996       C1016   1.276       .  A
O996      Mg1012   2.305       .  S
O998      Mg1012   2.163       .  S
O998       C1009   1.236       .  S
O999      Mg1018   2.132       .  S
O1000     Mg1012   2.293       .  S
Mg1001     O1017   2.240       .  S
O1002     Mg1018   2.248       .  S
H1003      C1008   1.081       .  S
O1004     Mg1012   2.142       .  S
O1004      C1007   1.235       .  S
H1005      C1007   1.081       .  S
H1006      C1009   1.081       .  S
O1011     Mg1018   2.297       .  S
C1014      C2690   1.487       .  S
C1014      O1019   1.276       .  A
O1015      C1016   1.273       .  A
C1016      C1613   1.492       .  S
C1021      N1022   1.356       .  A
C1021      N1026   1.356       .  A
C1021      C1081   1.478       .  S
N1022      C1023   1.355       .  A
C1023      N1024   1.359       .  A
C1023      C3181   1.486       .  S
N1024      C1025   1.358       .  A
C1025      N1026   1.355       .  A
C1025      C1109   1.469       .  S
C1027      N1028   1.364       .  A
C1027      N1032   1.361       .  A
C1027      C1150   1.496       .  S
N1028      C1029   1.360       .  A
C1029      N1030   1.353       .  A
C1029      C1122   1.466       .  S
N1030      C1031   1.351       .  A
C1031      N1032   1.356       .  A
C1031      C3306   1.474       .  S
O1033     Mg1035   2.132       .  S
O1033     Mg1041   2.152       .  S
O1033      C1068   1.236       .  S
C1034      H1073   1.081       .  S
C1034      O1047   1.235       .  S
C1034      O1071   1.268       .  A
Mg1035     O1064   2.148       .  S
Mg1035     O1079   2.318       .  S
Mg1035     O1075   2.243       .  S
Mg1035     O1046   2.301       .  S
O1036     Mg1078   2.153       .  S
O1036     Mg1061   2.147       .  S
O1036      C1057   1.236       .  S
O1037      C1068   1.270       .  A
O1037     Mg1061   2.299       .  S
C1038      C2270   1.491       .  S
C1038      O1040   1.272       .  A
C1038      O1052   1.275       .  A
O1039      C1067   1.268       .  A
O1039     Mg1041   2.293       .  S
O1040     Mg1072   2.268       .  S
Mg1041     O1047   2.137       .  S
Mg1041     O1055   2.249       .  S
Mg1041     O1043   2.259       .  S
C1042      C1962   1.492       .  S
C1042      O1080   1.271       .  A
C1042      O1048   1.274       .  A
O1043      C1050   1.269       .  A
H1044      C1057   1.081       .  S
C1045      H1070   1.081       .  S
C1045      O1059   1.236       .  S
C1045      O1060   1.269       .  A
O1046      C1069   1.270       .  A
O1047     Mg1061   2.162       .  S
O1048     Mg1078   2.291       .  S
C1049      C2089   1.492       .  S
C1049      O1062   1.271       .  A
C1049      O1054   1.276       .  A
C1050      C2033   1.481       .  S
C1050      O1077   1.274       .  A
Mg1051     O1058   2.138       .  S
Mg1051     O1059   2.149       .  S
Mg1051     O1052   2.299       .  S
Mg1051     O1053   2.302       .  S
Mg1051     O1080   2.268       .  S
O1053      C1057   1.271       .  A
O1054     Mg1061   2.320       .  S
O1055      C1074   1.270       .  A
O1056      C1076   1.273       .  A
O1056     Mg1072   2.287       .  S
O1058     Mg1072   2.153       .  S
O1058      C1069   1.236       .  S
O1059     Mg1078   2.126       .  S
O1060     Mg1072   2.290       .  S
Mg1061     O1077   2.278       .  S
O1062     Mg1078   2.237       .  S
H1063      C1068   1.081       .  S
O1064     Mg1072   2.143       .  S
O1064      C1067   1.234       .  S
H1065      C1067   1.081       .  S
H1066      C1069   1.081       .  S
O1071     Mg1078   2.293       .  S
C1074      C2173   1.489       .  S
C1074      O1079   1.276       .  A
O1075      C1076   1.271       .  A
C1076      C1094   1.466       .  S
C1081      C1082   1.413       .  A
C1081      C1086   1.408       .  A
C1082      C1083   1.396       .  A
C1082      N1087   1.433       .  S
C1083      C1084   1.396       .  A
C1083      H1088   1.084       .  S
C1084      C1085   1.405       .  A
C1084      C1089   1.466       .  S
C1085      C1086   1.403       .  A
C1085      N1090   1.438       .  S
C1086      H1091   1.083       .  S
N1087      H1107   1.046       .  S
N1087      H1108   1.046       .  S
C1089      C1092   1.398       .  A
C1089      C1096   1.406       .  A
N1090      H1105   1.046       .  S
N1090      H1106   1.046       .  S
C1092      C1093   1.401       .  A
C1092      H1097   1.084       .  S
C1093      C1094   1.412       .  A
C1093      N1098   1.438       .  S
C1094      C1095   1.402       .  A
C1095      C1096   1.401       .  A
C1095      H1099   1.084       .  S
C1096      N1100   1.438       .  S
N1098      H1101   1.046       .  S
N1098      H1102   1.046       .  S
N1100      H1103   1.045       .  S
N1100      H1104   1.046       .  S
C1109      C1110   1.409       .  A
C1109      C1114   1.402       .  A
C1110      C1111   1.404       .  A
C1110      N1115   1.438       .  S
C1111      C1112   1.403       .  A
C1111      H1116   1.084       .  S
C1112      C1113   1.410       .  A
C1112      C1117   1.479       .  S
C1113      C1114   1.403       .  A
C1113      N1118   1.438       .  S
C1114      H1119   1.084       .  S
N1115      H1135   1.046       .  S
N1115      H1136   1.046       .  S
C1117      C1120   1.401       .  A
C1117      C1124   1.411       .  A
N1118      H1133   1.046       .  S
N1118      H1134   1.045       .  S
C1120      C1121   1.399       .  A
C1120      H1125   1.084       .  S
C1121      C1122   1.408       .  A
C1121      N1126   1.438       .  S
C1122      C1123   1.401       .  A
C1123      C1124   1.408       .  A
C1123      H1127   1.084       .  S
C1124      N1128   1.437       .  S
N1126      H1129   1.046       .  S
N1126      H1130   1.045       .  S
N1128      H1131   1.046       .  S
N1128      H1132   1.045       .  S
C1137      C1138   1.414       .  A
C1137      C1142   1.408       .  A
C1138      C1139   1.403       .  A
C1138      N1143   1.432       .  S
C1139      C1140   1.402       .  A
C1139      H1144   1.084       .  S
C1140      C1141   1.411       .  A
C1140      C1145   1.487       .  S
C1141      C1142   1.408       .  A
C1141      N1146   1.438       .  S
C1142      H1147   1.083       .  S
N1143      H1163   1.046       .  S
N1143      H1164   1.046       .  S
C1145      C1148   1.403       .  A
C1145      C1152   1.408       .  A
N1146      H1161   1.046       .  S
N1146      H1162   1.046       .  S
C1148      C1149   1.409       .  A
C1148      H1153   1.084       .  S
C1149      C1150   1.419       .  A
C1149      N1154   1.438       .  S
C1150      C1151   1.410       .  A
C1151      C1152   1.403       .  A
C1151      H1155   1.083       .  S
C1152      N1156   1.438       .  S
N1154      H1157   1.046       .  S
N1154      H1158   1.046       .  S
N1156      H1159   1.046       .  S
N1156      H1160   1.046       .  S
C1165      C1166   1.415       .  A
C1165      C1170   1.407       .  A
C1166      C1167   1.402       .  A
C1166      N1171   1.433       .  S
C1167      C1168   1.399       .  A
C1167      H1172   1.084       .  S
C1168      C1169   1.407       .  A
C1168      C1173   1.475       .  S
C1169      C1170   1.403       .  A
C1169      N1174   1.438       .  S
C1170      H1175   1.083       .  S
N1171      H1191   1.046       .  S
N1171      H1192   1.046       .  S
C1173      C1176   1.399       .  A
C1173      C1180   1.408       .  A
N1174      H1189   1.046       .  S
N1174      H1190   1.046       .  S
C1176      C1177   1.400       .  A
C1176      H1181   1.084       .  S
C1177      C1178   1.414       .  A
C1177      N1182   1.433       .  S
C1178      C1179   1.405       .  A
C1179      C1180   1.405       .  A
C1179      H1183   1.084       .  S
C1180      N1184   1.437       .  S
N1182      H1185   1.046       .  S
N1182      H1186   1.046       .  S
N1184      H1187   1.046       .  S
N1184      H1188   1.046       .  S
C1193      C1194   1.416       .  A
C1193      C1198   1.409       .  A
C1194      C1195   1.400       .  A
C1194      N1199   1.439       .  S
C1195      C1196   1.401       .  A
C1195      H1200   1.084       .  S
C1196      C1197   1.407       .  A
C1196      C1201   1.480       .  S
C1197      C1198   1.409       .  A
C1197      N1202   1.437       .  S
C1198      H1203   1.083       .  S
N1199      H1219   1.046       .  S
N1199      H1220   1.046       .  S
C1201      C1204   1.403       .  A
C1201      C1208   1.409       .  A
N1202      H1217   1.046       .  S
N1202      H1218   1.046       .  S
C1204      C1205   1.406       .  A
C1204      H1209   1.084       .  S
C1205      C1206   1.410       .  A
C1205      N1210   1.432       .  S
C1206      C1207   1.403       .  A
C1207      C1208   1.401       .  A
C1207      H1211   1.084       .  S
C1208      N1212   1.438       .  S
N1210      H1213   1.045       .  S
N1210      H1214   1.046       .  S
N1212      H1215   1.046       .  S
N1212      H1216   1.046       .  S
C1221      C1222   1.420       .  A
C1221      C1226   1.409       .  A
C1222      C1223   1.404       .  A
C1222      N1227   1.438       .  S
C1223      C1224   1.398       .  A
C1223      H1228   1.084       .  S
C1224      C1225   1.408       .  A
C1224      C1229   1.481       .  S
C1225      C1226   1.407       .  A
C1225      N1230   1.438       .  S
C1226      H1231   1.083       .  S
N1227      H1247   1.046       .  S
N1227      H1248   1.046       .  S
C1229      C1232   1.399       .  A
C1229      C1236   1.409       .  A
N1230      H1245   1.046       .  S
N1230      H1246   1.046       .  S
C1232      C1233   1.402       .  A
C1232      H1237   1.084       .  S
C1233      C1234   1.416       .  A
C1233      N1238   1.431       .  S
C1234      C1235   1.407       .  A
C1235      C1236   1.405       .  A
C1235      H1239   1.083       .  S
C1236      N1240   1.438       .  S
N1238      H1241   1.045       .  S
N1238      H1242   1.046       .  S
N1240      H1243   1.046       .  S
N1240      H1244   1.046       .  S
C1249      C1250   1.412       .  A
C1249      C1254   1.404       .  A
C1250      C1251   1.402       .  A
C1250      N1255   1.438       .  S
C1251      C1252   1.400       .  A
C1251      H1256   1.084       .  S
C1252      C1253   1.406       .  A
C1252      C1257   1.469       .  S
C1253      C1254   1.401       .  A
C1253      N1258   1.438       .  S
C1254      H1259   1.084       .  S
N1255      H1275   1.046       .  S
N1255      H1276   1.046       .  S
C1257      C1260   1.399       .  A
C1257      C1264   1.403       .  A
N1258      H1273   1.046       .  S
N1258      H1274   1.046       .  S
C1260      C1261   1.404       .  A
C1260      H1265   1.084       .  S
C1261      C1262   1.417       .  A
C1261      N1266   1.438       .  S
C1262      C1263   1.411       .  A
C1263      C1264   1.400       .  A
C1263      H1267   1.083       .  S
C1264      N1268   1.438       .  S
N1266      H1269   1.046       .  S
N1266      H1270   1.046       .  S
N1268      H1271   1.046       .  S
N1268      H1272   1.046       .  S
C1277      C1278   1.416       .  A
C1277      C1282   1.409       .  A
C1278      C1279   1.404       .  A
C1278      N1283   1.438       .  S
C1279      C1280   1.401       .  A
C1279      H1284   1.084       .  S
C1280      C1281   1.406       .  A
C1280      C1285   1.477       .  S
C1281      C1282   1.402       .  A
C1281      N1286   1.438       .  S
C1282      H1287   1.083       .  S
N1283      H1303   1.046       .  S
N1283      H1304   1.046       .  S
C1285      C1288   1.401       .  A
C1285      C1292   1.408       .  A
N1286      H1301   1.046       .  S
N1286      H1302   1.046       .  S
C1288      C1289   1.404       .  A
C1288      H1293   1.084       .  S
C1289      C1290   1.414       .  A
C1289      N1294   1.438       .  S
C1290      C1291   1.404       .  A
C1291      C1292   1.401       .  A
C1291      H1295   1.083       .  S
C1292      N1296   1.438       .  S
N1294      H1297   1.046       .  S
N1294      H1298   1.046       .  S
N1296      H1299   1.046       .  S
N1296      H1300   1.046       .  S
C1305      C1306   1.417       .  A
C1305      C1310   1.404       .  A
C1306      C1307   1.406       .  A
C1306      N1311   1.437       .  S
C1307      C1308   1.399       .  A
C1307      H1312   1.084       .  S
C1308      C1309   1.406       .  A
C1308      C1313   1.470       .  S
C1309      C1310   1.399       .  A
C1309      N1314   1.439       .  S
C1310      H1315   1.084       .  S
N1311      H1331   1.045       .  S
N1311      H1332   1.046       .  S
C1313      C1316   1.398       .  A
C1313      C1320   1.407       .  A
N1314      H1329   1.046       .  S
N1314      H1330   1.045       .  S
C1316      C1317   1.404       .  A
C1316      H1321   1.084       .  S
C1317      C1318   1.415       .  A
C1317      N1322   1.438       .  S
C1318      C1319   1.403       .  A
C1319      C1320   1.401       .  A
C1319      H1323   1.084       .  S
C1320      N1324   1.438       .  S
N1322      H1325   1.046       .  S
N1322      H1326   1.046       .  S
N1324      H1327   1.046       .  S
N1324      H1328   1.045       .  S
C1333      C1334   1.418       .  A
C1333      C1338   1.406       .  A
C1334      C1335   1.402       .  A
C1334      N1339   1.438       .  S
C1335      C1336   1.398       .  A
C1335      H1340   1.084       .  S
C1336      C1337   1.410       .  A
C1336      C1341   1.480       .  S
C1337      C1338   1.408       .  A
C1337      N1342   1.438       .  S
C1338      H1343   1.083       .  S
N1339      H1359   1.046       .  S
N1339      H1360   1.046       .  S
C1341      C1344   1.401       .  A
C1341      C1348   1.407       .  A
N1342      H1357   1.045       .  S
N1342      H1358   1.046       .  S
C1344      C1345   1.408       .  A
C1344      H1349   1.084       .  S
C1345      C1346   1.419       .  A
C1345      N1350   1.438       .  S
C1346      C1347   1.407       .  A
C1347      C1348   1.401       .  A
C1347      H1351   1.083       .  S
C1348      N1352   1.438       .  S
N1350      H1353   1.046       .  S
N1350      H1354   1.046       .  S
N1352      H1355   1.046       .  S
N1352      H1356   1.046       .  S
C1361      C1362   1.420       .  A
C1361      C1366   1.408       .  A
C1362      C1363   1.401       .  A
C1362      N1367   1.433       .  S
C1363      C1364   1.396       .  A
C1363      H1368   1.084       .  S
C1364      C1365   1.407       .  A
C1364      C1369   1.477       .  S
C1365      C1366   1.407       .  A
C1365      N1370   1.437       .  S
C1366      H1371   1.083       .  S
N1367      H1387   1.046       .  S
N1367      H1388   1.046       .  S
C1369      C1372   1.400       .  A
C1369      C1376   1.408       .  A
N1370      H1385   1.046       .  S
N1370      H1386   1.046       .  S
C1372      C1373   1.404       .  A
C1372      H1377   1.084       .  S
C1373      C1374   1.412       .  A
C1373      N1378   1.438       .  S
C1374      C1375   1.406       .  A
C1375      C1376   1.407       .  A
C1375      H1379   1.084       .  S
C1376      N1380   1.438       .  S
N1378      H1381   1.046       .  S
N1378      H1382   1.046       .  S
N1380      H1383   1.046       .  S
N1380      H1384   1.045       .  S
C1389      C1390   1.411       .  A
C1389      C1394   1.403       .  A
C1390      C1391   1.402       .  A
C1390      N1395   1.438       .  S
C1391      C1392   1.403       .  A
C1391      H1396   1.084       .  S
C1392      C1393   1.411       .  A
C1392      C1397   1.486       .  S
C1393      C1394   1.409       .  A
C1393      N1398   1.437       .  S
C1394      H1399   1.084       .  S
N1395      H1415   1.046       .  S
N1395      H1416   1.046       .  S
C1397      C1400   1.403       .  A
C1397      C1404   1.407       .  A
N1398      H1413   1.046       .  S
N1398      H1414   1.046       .  S
C1400      C1401   1.413       .  A
C1400      H1405   1.084       .  S
C1401      C1402   1.420       .  A
C1401      N1406   1.437       .  S
C1402      C1403   1.409       .  A
C1403      C1404   1.400       .  A
C1403      H1407   1.083       .  S
C1404      N1408   1.439       .  S
N1406      H1409   1.046       .  S
N1406      H1410   1.045       .  S
N1408      H1411   1.046       .  S
N1408      H1412   1.046       .  S
C1417      C1418   1.413       .  A
C1417      C1422   1.406       .  A
C1418      C1419   1.403       .  A
C1418      N1423   1.432       .  S
C1419      C1420   1.402       .  A
C1419      H1424   1.084       .  S
C1420      C1421   1.408       .  A
C1420      C1425   1.480       .  S
C1421      C1422   1.403       .  A
C1421      N1426   1.438       .  S
C1422      H1427   1.083       .  S
N1423      H1443   1.045       .  S
N1423      H1444   1.046       .  S
C1425      C1428   1.402       .  A
C1425      C1432   1.406       .  A
N1426      H1441   1.046       .  S
N1426      H1442   1.046       .  S
C1428      C1429   1.406       .  A
C1428      H1433   1.084       .  S
C1429      C1430   1.418       .  A
C1429      N1434   1.438       .  S
C1430      C1431   1.410       .  A
C1431      C1432   1.403       .  A
C1431      H1435   1.083       .  S
C1432      N1436   1.438       .  S
N1434      H1437   1.046       .  S
N1434      H1438   1.046       .  S
N1436      H1439   1.046       .  S
N1436      H1440   1.046       .  S
C1445      C1446   1.415       .  A
C1445      C1450   1.406       .  A
C1446      C1447   1.405       .  A
C1446      N1451   1.438       .  S
C1447      C1448   1.401       .  A
C1447      H1452   1.084       .  S
C1448      C1449   1.408       .  A
C1448      C1453   1.479       .  S
C1449      C1450   1.404       .  A
C1449      N1454   1.438       .  S
C1450      H1455   1.083       .  S
N1451      H1471   1.046       .  S
N1451      H1472   1.046       .  S
C1453      C1456   1.401       .  A
C1453      C1460   1.407       .  A
N1454      H1469   1.046       .  S
N1454      H1470   1.046       .  S
C1456      C1457   1.404       .  A
C1456      H1461   1.084       .  S
C1457      C1458   1.419       .  A
C1457      N1462   1.438       .  S
C1458      C1459   1.409       .  A
C1459      C1460   1.403       .  A
C1459      H1463   1.083       .  S
C1460      N1464   1.438       .  S
N1462      H1465   1.046       .  S
N1462      H1466   1.046       .  S
N1464      H1467   1.046       .  S
N1464      H1468   1.046       .  S
C1473      C1474   1.412       .  A
C1473      C1478   1.405       .  A
C1474      C1475   1.399       .  A
C1474      N1479   1.438       .  S
C1475      C1476   1.399       .  A
C1475      H1480   1.084       .  S
C1476      C1477   1.408       .  A
C1476      C1481   1.475       .  S
C1477      C1478   1.408       .  A
C1477      N1482   1.437       .  S
C1478      H1483   1.084       .  S
N1479      H1499   1.045       .  S
N1479      H1500   1.046       .  S
C1481      C1484   1.402       .  A
C1481      C1488   1.406       .  A
N1482      H1497   1.046       .  S
N1482      H1498   1.046       .  S
C1484      C1485   1.406       .  A
C1484      H1489   1.084       .  S
C1485      C1486   1.411       .  A
C1485      N1490   1.438       .  S
C1486      C1487   1.404       .  A
C1487      C1488   1.403       .  A
C1487      H1491   1.084       .  S
C1488      N1492   1.437       .  S
N1490      H1493   1.046       .  S
N1490      H1494   1.046       .  S
N1492      H1495   1.046       .  S
N1492      H1496   1.046       .  S
C1501      C1502   1.423       .  A
C1501      C1506   1.410       .  A
C1502      C1503   1.405       .  A
C1502      N1507   1.438       .  S
C1503      C1504   1.398       .  A
C1503      H1508   1.084       .  S
C1504      C1505   1.408       .  A
C1504      C1509   1.485       .  S
C1505      C1506   1.409       .  A
C1505      N1510   1.438       .  S
C1506      H1511   1.083       .  S
N1507      H1527   1.046       .  S
N1507      H1528   1.046       .  S
C1509      C1512   1.401       .  A
C1509      C1516   1.408       .  A
N1510      H1525   1.045       .  S
N1510      H1526   1.046       .  S
C1512      C1513   1.409       .  A
C1512      H1517   1.084       .  S
C1513      C1514   1.421       .  A
C1513      N1518   1.438       .  S
C1514      C1515   1.409       .  A
C1515      C1516   1.405       .  A
C1515      H1519   1.083       .  S
C1516      N1520   1.438       .  S
N1518      H1521   1.046       .  S
N1518      H1522   1.046       .  S
N1520      H1523   1.046       .  S
N1520      H1524   1.046       .  S
C1529      C1530   1.414       .  A
C1529      C1534   1.408       .  A
C1530      C1531   1.405       .  A
C1530      N1535   1.438       .  S
C1531      C1532   1.401       .  A
C1531      H1536   1.084       .  S
C1532      C1533   1.405       .  A
C1532      C1537   1.475       .  S
C1533      C1534   1.403       .  A
C1533      N1538   1.438       .  S
C1534      H1539   1.084       .  S
N1535      H1555   1.046       .  S
N1535      H1556   1.046       .  S
C1537      C1540   1.398       .  A
C1537      C1544   1.407       .  A
N1538      H1553   1.046       .  S
N1538      H1554   1.046       .  S
C1540      C1541   1.400       .  A
C1540      H1545   1.084       .  S
C1541      C1542   1.414       .  A
C1541      N1546   1.432       .  S
C1542      C1543   1.408       .  A
C1543      C1544   1.405       .  A
C1543      H1547   1.083       .  S
C1544      N1548   1.438       .  S
N1546      H1549   1.046       .  S
N1546      H1550   1.046       .  S
N1548      H1551   1.046       .  S
N1548      H1552   1.046       .  S
C1557      C1558   1.418       .  A
C1557      C1562   1.407       .  A
C1558      C1559   1.412       .  A
C1558      N1563   1.437       .  S
C1559      C1560   1.402       .  A
C1559      H1564   1.084       .  S
C1560      C1561   1.406       .  A
C1560      C1565   1.480       .  S
C1561      C1562   1.399       .  A
C1561      N1566   1.439       .  S
C1562      H1567   1.083       .  S
N1563      H1583   1.046       .  S
N1563      H1584   1.046       .  S
C1565      C1568   1.400       .  A
C1565      C1572   1.408       .  A
N1566      H1581   1.046       .  S
N1566      H1582   1.046       .  S
C1568      C1569   1.402       .  A
C1568      H1573   1.084       .  S
C1569      C1570   1.414       .  A
C1569      N1574   1.438       .  S
C1570      C1571   1.408       .  A
C1571      C1572   1.408       .  A
C1571      H1575   1.083       .  S
C1572      N1576   1.437       .  S
N1574      H1577   1.046       .  S
N1574      H1578   1.046       .  S
N1576      H1579   1.046       .  S
N1576      H1580   1.045       .  S
C1585      C1586   1.413       .  A
C1585      C1590   1.407       .  A
C1586      C1587   1.402       .  A
C1586      N1591   1.432       .  S
C1587      C1588   1.401       .  A
C1587      H1592   1.084       .  S
C1588      C1589   1.406       .  A
C1588      C1593   1.472       .  S
C1589      C1590   1.399       .  A
C1589      N1594   1.438       .  S
C1590      H1595   1.083       .  S
N1591      H1611   1.046       .  S
N1591      H1612   1.045       .  S
C1593      C1596   1.398       .  A
C1593      C1600   1.407       .  A
N1594      H1609   1.046       .  S
N1594      H1610   1.046       .  S
C1596      C1597   1.400       .  A
C1596      H1601   1.084       .  S
C1597      C1598   1.416       .  A
C1597      N1602   1.439       .  S
C1598      C1599   1.407       .  A
C1599      C1600   1.403       .  A
C1599      H1603   1.084       .  S
C1600      N1604   1.438       .  S
N1602      H1605   1.046       .  S
N1602      H1606   1.046       .  S
N1604      H1607   1.046       .  S
N1604      H1608   1.046       .  S
C1613      C1614   1.416       .  A
C1613      C1618   1.410       .  A
C1614      C1615   1.403       .  A
C1614      N1619   1.433       .  S
C1615      C1616   1.401       .  A
C1615      H1620   1.084       .  S
C1616      C1617   1.408       .  A
C1616      C1621   1.482       .  S
C1617      C1618   1.407       .  A
C1617      N1622   1.438       .  S
C1618      H1623   1.083       .  S
N1619      H1639   1.046       .  S
N1619      H1640   1.045       .  S
C1621      C1624   1.402       .  A
C1621      C1628   1.406       .  A
N1622      H1637   1.046       .  S
N1622      H1638   1.046       .  S
C1624      C1625   1.406       .  A
C1624      H1629   1.084       .  S
C1625      C1626   1.414       .  A
C1625      N1630   1.432       .  S
C1626      C1627   1.406       .  A
C1627      C1628   1.401       .  A
C1627      H1631   1.084       .  S
C1628      N1632   1.432       .  S
N1630      H1633   1.046       .  S
N1630      H1634   1.046       .  S
N1632      H1635   1.046       .  S
N1632      H1636   1.046       .  S
C1641      C1642   1.415       .  A
C1641      C1646   1.409       .  A
C1642      C1643   1.398       .  A
C1642      N1647   1.437       .  S
C1643      C1644   1.398       .  A
C1643      H1648   1.084       .  S
C1644      C1645   1.408       .  A
C1644      C1649   1.478       .  S
C1645      C1646   1.410       .  A
C1645      N1650   1.437       .  S
C1646      H1651   1.083       .  S
N1647      H1667   1.046       .  S
N1647      H1668   1.046       .  S
C1649      C1652   1.401       .  A
C1649      C1656   1.408       .  A
N1650      H1665   1.046       .  S
N1650      H1666   1.045       .  S
C1652      C1653   1.406       .  A
C1652      H1657   1.084       .  S
C1653      C1654   1.413       .  A
C1653      N1658   1.431       .  S
C1654      C1655   1.404       .  A
C1655      C1656   1.399       .  A
C1655      H1659   1.084       .  S
C1656      N1660   1.438       .  S
N1658      H1661   1.046       .  S
N1658      H1662   1.046       .  S
N1660      H1663   1.046       .  S
N1660      H1664   1.046       .  S
C1669      C1670   1.414       .  A
C1669      C1674   1.407       .  A
C1670      C1671   1.405       .  A
C1670      N1675   1.438       .  S
C1671      C1672   1.401       .  A
C1671      H1676   1.084       .  S
C1672      C1673   1.405       .  A
C1672      C1677   1.474       .  S
C1673      C1674   1.401       .  A
C1673      N1678   1.438       .  S
C1674      H1679   1.083       .  S
N1675      H1695   1.046       .  S
N1675      H1696   1.046       .  S
C1677      C1680   1.398       .  A
C1677      C1684   1.405       .  A
N1678      H1693   1.046       .  S
N1678      H1694   1.046       .  S
C1680      C1681   1.404       .  A
C1680      H1685   1.084       .  S
C1681      C1682   1.420       .  A
C1681      N1686   1.438       .  S
C1682      C1683   1.408       .  A
C1683      C1684   1.402       .  A
C1683      H1687   1.083       .  S
C1684      N1688   1.438       .  S
N1686      H1689   1.046       .  S
N1686      H1690   1.046       .  S
N1688      H1691   1.046       .  S
N1688      H1692   1.046       .  S
C1697      C1698   1.419       .  A
C1697      C1702   1.412       .  A
C1698      C1699   1.405       .  A
C1698      N1703   1.437       .  S
C1699      C1700   1.399       .  A
C1699      H1704   1.084       .  S
C1700      C1701   1.405       .  A
C1700      C1705   1.478       .  S
C1701      C1702   1.407       .  A
C1701      N1706   1.438       .  S
C1702      H1707   1.083       .  S
N1703      H1723   1.046       .  S
N1703      H1724   1.046       .  S
C1705      C1708   1.398       .  A
C1705      C1712   1.406       .  A
N1706      H1721   1.046       .  S
N1706      H1722   1.046       .  S
C1708      C1709   1.406       .  A
C1708      H1713   1.084       .  S
C1709      C1710   1.419       .  A
C1709      N1714   1.437       .  S
C1710      C1711   1.408       .  A
C1711      C1712   1.405       .  A
C1711      H1715   1.083       .  S
C1712      N1716   1.438       .  S
N1714      H1717   1.046       .  S
N1714      H1718   1.046       .  S
N1716      H1719   1.046       .  S
N1716      H1720   1.046       .  S
C1725      C1726   1.415       .  A
C1725      C1730   1.405       .  A
C1726      C1727   1.408       .  A
C1726      N1731   1.437       .  S
C1727      C1728   1.401       .  A
C1727      H1732   1.084       .  S
C1728      C1729   1.406       .  A
C1728      C1733   1.474       .  S
C1729      C1730   1.399       .  A
C1729      N1734   1.439       .  S
C1730      H1735   1.084       .  S
N1731      H1751   1.045       .  S
N1731      H1752   1.046       .  S
C1733      C1736   1.401       .  A
C1733      C1740   1.407       .  A
N1734      H1749   1.046       .  S
N1734      H1750   1.046       .  S
C1736      C1737   1.405       .  A
C1736      H1741   1.084       .  S
C1737      C1738   1.412       .  A
C1737      N1742   1.438       .  S
C1738      C1739   1.404       .  A
C1739      C1740   1.403       .  A
C1739      H1743   1.084       .  S
C1740      N1744   1.438       .  S
N1742      H1745   1.046       .  S
N1742      H1746   1.045       .  S
N1744      H1747   1.046       .  S
N1744      H1748   1.046       .  S
C1753      C1754   1.413       .  A
C1753      C1758   1.408       .  A
C1754      C1755   1.402       .  A
C1754      N1759   1.431       .  S
C1755      C1756   1.399       .  A
C1755      H1760   1.084       .  S
C1756      C1757   1.405       .  A
C1756      C1761   1.471       .  S
C1757      C1758   1.403       .  A
C1757      N1762   1.438       .  S
C1758      H1763   1.083       .  S
N1759      H1779   1.046       .  S
N1759      H1780   1.046       .  S
C1761      C1764   1.398       .  A
C1761      C1768   1.406       .  A
N1762      H1777   1.046       .  S
N1762      H1778   1.045       .  S
C1764      C1765   1.402       .  A
C1764      H1769   1.084       .  S
C1765      C1766   1.416       .  A
C1765      N1770   1.438       .  S
C1766      C1767   1.408       .  A
C1767      C1768   1.403       .  A
C1767      H1771   1.083       .  S
C1768      N1772   1.438       .  S
N1770      H1773   1.046       .  S
N1770      H1774   1.046       .  S
N1772      H1775   1.046       .  S
N1772      H1776   1.045       .  S
C1781      C1782   1.414       .  A
C1781      C1786   1.405       .  A
C1782      C1783   1.398       .  A
C1782      N1787   1.433       .  S
C1783      C1784   1.400       .  A
C1783      H1788   1.084       .  S
C1784      C1785   1.411       .  A
C1784      C1789   1.480       .  S
C1785      C1786   1.406       .  A
C1785      N1790   1.438       .  S
C1786      H1791   1.083       .  S
N1787      H1807   1.046       .  S
N1787      H1808   1.046       .  S
C1789      C1792   1.400       .  A
C1789      C1796   1.408       .  A
N1790      H1805   1.046       .  S
N1790      H1806   1.046       .  S
C1792      C1793   1.404       .  A
C1792      H1797   1.084       .  S
C1793      C1794   1.419       .  A
C1793      N1798   1.437       .  S
C1794      C1795   1.408       .  A
C1795      C1796   1.403       .  A
C1795      H1799   1.083       .  S
C1796      N1800   1.438       .  S
N1798      H1801   1.046       .  S
N1798      H1802   1.046       .  S
N1800      H1803   1.046       .  S
N1800      H1804   1.046       .  S
C1809      C1810   1.414       .  A
C1809      C1814   1.407       .  A
C1810      C1811   1.402       .  A
C1810      N1815   1.437       .  S
C1811      C1812   1.400       .  A
C1811      H1816   1.084       .  S
C1812      C1813   1.407       .  A
C1812      C1817   1.478       .  S
C1813      C1814   1.407       .  A
C1813      N1818   1.437       .  S
C1814      H1819   1.083       .  S
N1815      H1835   1.046       .  S
N1815      H1836   1.046       .  S
C1817      C1820   1.402       .  A
C1817      C1824   1.406       .  A
N1818      H1833   1.046       .  S
N1818      H1834   1.046       .  S
C1820      C1821   1.411       .  A
C1820      H1825   1.084       .  S
C1821      C1822   1.417       .  A
C1821      N1826   1.437       .  S
C1822      C1823   1.405       .  A
C1823      C1824   1.398       .  A
C1823      H1827   1.083       .  S
C1824      N1828   1.439       .  S
N1826      H1829   1.046       .  S
N1826      H1830   1.046       .  S
N1828      H1831   1.046       .  S
N1828      H1832   1.046       .  S
C1837      C1838   1.421       .  A
C1837      C1842   1.409       .  A
C1838      C1839   1.405       .  A
C1838      N1843   1.438       .  S
C1839      C1840   1.399       .  A
C1839      H1844   1.084       .  S
C1840      C1841   1.409       .  A
C1840      C1845   1.484       .  S
C1841      C1842   1.406       .  A
C1841      N1846   1.438       .  S
C1842      H1847   1.083       .  S
N1843      H1863   1.046       .  S
N1843      H1864   1.046       .  S
C1845      C1848   1.402       .  A
C1845      C1852   1.410       .  A
N1846      H1861   1.046       .  S
N1846      H1862   1.046       .  S
C1848      C1849   1.406       .  A
C1848      H1853   1.084       .  S
C1849      C1850   1.415       .  A
C1849      N1854   1.437       .  S
C1850      C1851   1.406       .  A
C1851      C1852   1.405       .  A
C1851      H1855   1.084       .  S
C1852      N1856   1.438       .  S
N1854      H1857   1.046       .  S
N1854      H1858   1.045       .  S
N1856      H1859   1.046       .  S
N1856      H1860   1.045       .  S
C1865      C1866   1.412       .  A
C1865      C1870   1.405       .  A
C1866      C1867   1.401       .  A
C1866      N1871   1.433       .  S
C1867      C1868   1.401       .  A
C1867      H1872   1.084       .  S
C1868      C1869   1.412       .  A
C1868      C1873   1.486       .  S
C1869      C1870   1.409       .  A
C1869      N1874   1.437       .  S
C1870      H1875   1.084       .  S
N1871      H1891   1.046       .  S
N1871      H1892   1.046       .  S
C1873      C1876   1.402       .  A
C1873      C1880   1.410       .  A
N1874      H1889   1.046       .  S
N1874      H1890   1.046       .  S
C1876      C1877   1.405       .  A
C1876      H1881   1.084       .  S
C1877      C1878   1.413       .  A
C1877      N1882   1.432       .  S
C1878      C1879   1.408       .  A
C1879      C1880   1.406       .  A
C1879      H1883   1.084       .  S
C1880      N1884   1.438       .  S
N1882      H1885   1.046       .  S
N1882      H1886   1.046       .  S
N1884      H1887   1.046       .  S
N1884      H1888   1.046       .  S
C1893      C1894   1.416       .  A
C1893      C1898   1.405       .  A
C1894      C1895   1.411       .  A
C1894      N1899   1.437       .  S
C1895      C1896   1.402       .  A
C1895      H1900   1.084       .  S
C1896      C1897   1.406       .  A
C1896      C1901   1.477       .  S
C1897      C1898   1.400       .  A
C1897      N1902   1.438       .  S
C1898      H1903   1.084       .  S
N1899      H1919   1.046       .  S
N1899      H1920   1.046       .  S
C1901      C1904   1.399       .  A
C1901      C1908   1.410       .  A
N1902      H1917   1.046       .  S
N1902      H1918   1.045       .  S
C1904      C1905   1.401       .  A
C1904      H1909   1.084       .  S
C1905      C1906   1.411       .  A
C1905      N1910   1.437       .  S
C1906      C1907   1.405       .  A
C1907      C1908   1.410       .  A
C1907      H1911   1.084       .  S
C1908      N1912   1.438       .  S
N1910      H1913   1.046       .  S
N1910      H1914   1.046       .  S
N1912      H1915   1.046       .  S
N1912      H1916   1.045       .  S
C1921      C1922   1.417       .  A
C1921      C1926   1.407       .  A
C1922      C1923   1.402       .  A
C1922      N1927   1.438       .  S
C1923      C1924   1.400       .  A
C1923      H1928   1.084       .  S
C1924      C1925   1.406       .  A
C1924      C1929   1.473       .  S
C1925      C1926   1.399       .  A
C1925      N1930   1.438       .  S
C1926      H1931   1.083       .  S
N1927      H1947   1.045       .  S
N1927      H1948   1.046       .  S
C1929      C1932   1.400       .  A
C1929      C1936   1.407       .  A
N1930      H1945   1.046       .  S
N1930      H1946   1.046       .  S
C1932      C1933   1.402       .  A
C1932      H1937   1.084       .  S
C1933      C1934   1.415       .  A
C1933      N1938   1.438       .  S
C1934      C1935   1.407       .  A
C1935      C1936   1.400       .  A
C1935      H1939   1.084       .  S
C1936      N1940   1.438       .  S
N1938      H1941   1.046       .  S
N1938      H1942   1.046       .  S
N1940      H1943   1.046       .  S
N1940      H1944   1.046       .  S
C1949      C1950   1.413       .  A
C1949      C1954   1.405       .  A
C1950      C1951   1.403       .  A
C1950      N1955   1.438       .  S
C1951      C1952   1.400       .  A
C1951      H1956   1.084       .  S
C1952      C1953   1.408       .  A
C1952      C1957   1.478       .  S
C1953      C1954   1.404       .  A
C1953      N1958   1.438       .  S
C1954      H1959   1.084       .  S
N1955      H1975   1.046       .  S
N1955      H1976   1.046       .  S
C1957      C1960   1.400       .  A
C1957      C1964   1.405       .  A
N1958      H1973   1.046       .  S
N1958      H1974   1.046       .  S
C1960      C1961   1.407       .  A
C1960      H1965   1.084       .  S
C1961      C1962   1.419       .  A
C1961      N1966   1.438       .  S
C1962      C1963   1.410       .  A
C1963      C1964   1.402       .  A
C1963      H1967   1.083       .  S
C1964      N1968   1.438       .  S
N1966      H1969   1.046       .  S
N1966      H1970   1.046       .  S
N1968      H1971   1.046       .  S
N1968      H1972   1.046       .  S
C1977      C1978   1.411       .  A
C1977      C1982   1.402       .  A
C1978      C1979   1.406       .  A
C1978      N1983   1.437       .  S
C1979      C1980   1.400       .  A
C1979      H1984   1.084       .  S
C1980      C1981   1.407       .  A
C1980      C1985   1.467       .  S
C1981      C1982   1.398       .  A
C1981      N1986   1.439       .  S
C1982      H1987   1.084       .  S
N1983      H2003   1.046       .  S
N1983      H2004   1.046       .  S
C1985      C1988   1.399       .  A
C1985      C1992   1.407       .  A
N1986      H2001   1.046       .  S
N1986      H2002   1.045       .  S
C1988      C1989   1.402       .  A
C1988      H1993   1.084       .  S
C1989      C1990   1.411       .  A
C1989      N1994   1.432       .  S
C1990      C1991   1.403       .  A
C1991      C1992   1.398       .  A
C1991      H1995   1.084       .  S
C1992      N1996   1.439       .  S
N1994      H1997   1.046       .  S
N1994      H1998   1.046       .  S
N1996      H1999   1.046       .  S
N1996      H2000   1.045       .  S
C2005      C2006   1.413       .  A
C2005      C2010   1.404       .  A
C2006      C2007   1.400       .  A
C2006      N2011   1.431       .  S
C2007      C2008   1.398       .  A
C2007      H2012   1.084       .  S
C2008      C2009   1.410       .  A
C2008      C2013   1.476       .  S
C2009      C2010   1.404       .  A
C2009      N2014   1.438       .  S
C2010      H2015   1.083       .  S
N2011      H2031   1.046       .  S
N2011      H2032   1.046       .  S
C2013      C2016   1.400       .  A
C2013      C2020   1.408       .  A
N2014      H2029   1.046       .  S
N2014      H2030   1.046       .  S
C2016      C2017   1.399       .  A
C2016      H2021   1.084       .  S
C2017      C2018   1.413       .  A
C2017      N2022   1.433       .  S
C2018      C2019   1.409       .  A
C2019      C2020   1.405       .  A
C2019      H2023   1.083       .  S
C2020      N2024   1.438       .  S
N2022      H2025   1.046       .  S
N2022      H2026   1.046       .  S
N2024      H2027   1.046       .  S
N2024      H2028   1.046       .  S
C2033      C2034   1.418       .  A
C2033      C2038   1.404       .  A
C2034      C2035   1.403       .  A
C2034      N2039   1.439       .  S
C2035      C2036   1.399       .  A
C2035      H2040   1.084       .  S
C2036      C2037   1.408       .  A
C2036      C2041   1.477       .  S
C2037      C2038   1.404       .  A
C2037      N2042   1.438       .  S
C2038      H2043   1.084       .  S
N2039      H2059   1.046       .  S
N2039      H2060   1.046       .  S
C2041      C2044   1.402       .  A
C2041      C2048   1.406       .  A
N2042      H2057   1.046       .  S
N2042      H2058   1.046       .  S
C2044      C2045   1.404       .  A
C2044      H2049   1.084       .  S
C2045      C2046   1.412       .  A
C2045      N2050   1.432       .  S
C2046      C2047   1.407       .  A
C2047      C2048   1.401       .  A
C2047      H2051   1.083       .  S
C2048      N2052   1.438       .  S
N2050      H2053   1.046       .  S
N2050      H2054   1.046       .  S
N2052      H2055   1.046       .  S
N2052      H2056   1.046       .  S
C2061      C2062   1.408       .  A
C2061      C2066   1.403       .  A
C2062      C2063   1.402       .  A
C2062      N2067   1.438       .  S
C2063      C2064   1.403       .  A
C2063      H2068   1.084       .  S
C2064      C2065   1.411       .  A
C2064      C2069   1.482       .  S
C2065      C2066   1.408       .  A
C2065      N2070   1.437       .  S
C2066      H2071   1.084       .  S
N2067      H2087   1.046       .  S
N2067      H2088   1.046       .  S
C2069      C2072   1.402       .  A
C2069      C2076   1.409       .  A
N2070      H2085   1.046       .  S
N2070      H2086   1.046       .  S
C2072      C2073   1.405       .  A
C2072      H2077   1.084       .  S
C2073      C2074   1.413       .  A
C2073      N2078   1.438       .  S
C2074      C2075   1.405       .  A
C2075      C2076   1.404       .  A
C2075      H2079   1.083       .  S
C2076      N2080   1.437       .  S
N2078      H2081   1.046       .  S
N2078      H2082   1.046       .  S
N2080      H2083   1.046       .  S
N2080      H2084   1.045       .  S
C2089      C2090   1.420       .  A
C2089      C2094   1.410       .  A
C2090      C2091   1.409       .  A
C2090      N2095   1.438       .  S
C2091      C2092   1.400       .  A
C2091      H2096   1.084       .  S
C2092      C2093   1.404       .  A
C2092      C2097   1.477       .  S
C2093      C2094   1.400       .  A
C2093      N2098   1.438       .  S
C2094      H2099   1.083       .  S
N2095      H2115   1.045       .  S
N2095      H2116   1.046       .  S
C2097      C2100   1.397       .  A
C2097      C2104   1.407       .  A
N2098      H2113   1.046       .  S
N2098      H2114   1.046       .  S
C2100      C2101   1.399       .  A
C2100      H2105   1.084       .  S
C2101      C2102   1.417       .  A
C2101      N2106   1.432       .  S
C2102      C2103   1.411       .  A
C2103      C2104   1.409       .  A
C2103      H2107   1.083       .  S
C2104      N2108   1.437       .  S
N2106      H2109   1.046       .  S
N2106      H2110   1.046       .  S
N2108      H2111   1.046       .  S
N2108      H2112   1.046       .  S
C2117      C2118   1.421       .  A
C2117      C2122   1.409       .  A
C2118      C2119   1.407       .  A
C2118      N2123   1.438       .  S
C2119      C2120   1.400       .  A
C2119      H2124   1.084       .  S
C2120      C2121   1.408       .  A
C2120      C2125   1.483       .  S
C2121      C2122   1.405       .  A
C2121      N2126   1.438       .  S
C2122      H2127   1.083       .  S
N2123      H2143   1.046       .  S
N2123      H2144   1.046       .  S
C2125      C2128   1.399       .  A
C2125      C2132   1.410       .  A
N2126      H2141   1.046       .  S
N2126      H2142   1.046       .  S
C2128      C2129   1.403       .  A
C2128      H2133   1.084       .  S
C2129      C2130   1.418       .  A
C2129      N2134   1.438       .  S
C2130      C2131   1.407       .  A
C2131      C2132   1.408       .  A
C2131      H2135   1.083       .  S
C2132      N2136   1.437       .  S
N2134      H2137   1.046       .  S
N2134      H2138   1.046       .  S
N2136      H2139   1.046       .  S
N2136      H2140   1.046       .  S
C2145      C2146   1.414       .  A
C2145      C2150   1.407       .  A
C2146      C2147   1.411       .  A
C2146      N2151   1.437       .  S
C2147      C2148   1.403       .  A
C2147      H2152   1.084       .  S
C2148      C2149   1.406       .  A
C2148      C2153   1.479   1_556  S
C2149      C2150   1.401       .  A
C2149      N2154   1.438       .  S
C2150      H2155   1.084       .  S
N2151      H2171   1.046       .  S
N2151      H2172   1.046       .  S
C2153      C2156   1.400       .  A
C2153      C2160   1.408       .  A
N2154      H2169   1.046       .  S
N2154      H2170   1.046       .  S
C2156      C2157   1.403       .  A
C2156      H2161   1.084       .  S
C2157      C2158   1.415       .  A
C2157      N2162   1.437       .  S
C2158      C2159   1.407       .  A
C2159      C2160   1.408       .  A
C2159      H2163   1.083       .  S
C2160      N2164   1.437       .  S
N2162      H2165   1.046       .  S
N2162      H2166   1.046       .  S
N2164      H2167   1.046       .  S
N2164      H2168   1.046       .  S
C2173      C2174   1.416       .  A
C2173      C2178   1.410       .  A
C2174      C2175   1.405       .  A
C2174      N2179   1.437       .  S
C2175      C2176   1.401       .  A
C2175      H2180   1.084       .  S
C2176      C2177   1.407       .  A
C2176      C2181   1.481       .  S
C2177      C2178   1.405       .  A
C2177      N2182   1.438       .  S
C2178      H2183   1.084       .  S
N2179      H2199   1.045       .  S
N2179      H2200   1.046       .  S
C2181      C2184   1.402       .  A
C2181      C2188   1.411       .  A
N2182      H2197   1.046       .  S
N2182      H2198   1.046       .  S
C2184      C2185   1.403       .  A
C2184      H2189   1.084       .  S
C2185      C2186   1.410       .  A
C2185      N2190   1.432       .  S
C2186      C2187   1.402       .  A
C2187      C2188   1.404       .  A
C2187      H2191   1.084       .  S
C2188      N2192   1.438       .  S
N2190      H2193   1.046       .  S
N2190      H2194   1.046       .  S
N2192      H2195   1.046       .  S
N2192      H2196   1.045       .  S
C2201      C2202   1.421       .  A
C2201      C2206   1.409       .  A
C2202      C2203   1.406       .  A
C2202      N2207   1.438       .  S
C2203      C2204   1.400       .  A
C2203      H2208   1.084       .  S
C2204      C2205   1.409       .  A
C2204      C2209   1.485       .  S
C2205      C2206   1.406       .  A
C2205      N2210   1.438       .  S
C2206      H2211   1.083       .  S
N2207      H2227   1.046       .  S
N2207      H2228   1.046       .  S
C2209      C2212   1.398       .  A
C2209      C2216   1.409       .  A
N2210      H2225   1.046       .  S
N2210      H2226   1.046       .  S
C2212      C2213   1.405       .  A
C2212      H2217   1.084       .  S
C2213      C2214   1.421       .  A
C2213      N2218   1.436       .  S
C2214      C2215   1.409       .  A
C2215      C2216   1.408       .  A
C2215      H2219   1.083       .  S
C2216      N2220   1.438       .  S
N2218      H2221   1.046       .  S
N2218      H2222   1.045       .  S
N2220      H2223   1.045       .  S
N2220      H2224   1.046       .  S
C2229      C2230   1.413       .  A
C2229      C2234   1.403       .  A
C2230      C2231   1.413       .  A
C2230      N2235   1.437       .  S
C2231      C2232   1.406       .  A
C2231      H2236   1.083       .  S
C2232      C2233   1.410       .  A
C2232      C2237   1.486   1_655  S
C2233      C2234   1.398       .  A
C2233      N2238   1.439       .  S
C2234      H2239   1.084       .  S
N2235      H2255   1.046       .  S
N2235      H2256   1.046       .  S
C2237      C2240   1.401       .  A
C2237      C2244   1.411       .  A
N2238      H2253   1.046       .  S
N2238      H2254   1.045       .  S
C2240      C2241   1.399       .  A
C2240      H2245   1.084       .  S
C2241      C2242   1.413       .  A
C2241      N2246   1.439       .  S
C2242      C2243   1.408       .  A
C2243      C2244   1.412       .  A
C2243      H2247   1.083       .  S
C2244      N2248   1.437       .  S
N2246      H2249   1.046       .  S
N2246      H2250   1.046       .  S
N2248      H2251   1.046       .  S
N2248      H2252   1.045       .  S
C2257      C2258   1.415       .  A
C2257      C2262   1.412       .  A
C2258      C2259   1.405       .  A
C2258      N2263   1.432       .  S
C2259      C2260   1.403       .  A
C2259      H2264   1.084       .  S
C2260      C2261   1.407       .  A
C2260      C2265   1.484       .  S
C2261      C2262   1.404       .  A
C2261      N2266   1.438       .  S
C2262      H2267   1.083       .  S
N2263      H2283   1.046       .  S
N2263      H2284   1.046       .  S
C2265      C2268   1.402       .  A
C2265      C2272   1.408       .  A
N2266      H2281   1.046       .  S
N2266      H2282   1.046       .  S
C2268      C2269   1.407       .  A
C2268      H2273   1.084       .  S
C2269      C2270   1.418       .  A
C2269      N2274   1.438       .  S
C2270      C2271   1.409       .  A
C2271      C2272   1.404       .  A
C2271      H2275   1.083       .  S
C2272      N2276   1.438       .  S
N2274      H2277   1.046       .  S
N2274      H2278   1.046       .  S
N2276      H2279   1.046       .  S
N2276      H2280   1.046       .  S
C2285      C2286   1.419       .  A
C2285      C2290   1.409       .  A
C2286      C2287   1.404       .  A
C2286      N2291   1.438       .  S
C2287      C2288   1.398       .  A
C2287      H2292   1.084       .  S
C2288      C2289   1.405       .  A
C2288      C2293   1.474       .  S
C2289      C2290   1.403       .  A
C2289      N2294   1.438       .  S
C2290      H2295   1.083       .  S
N2291      H2311   1.046       .  S
N2291      H2312   1.046       .  S
C2293      C2296   1.397       .  A
C2293      C2300   1.409       .  A
N2294      H2309   1.046       .  S
N2294      H2310   1.046       .  S
C2296      C2297   1.400       .  A
C2296      H2301   1.084       .  S
C2297      C2298   1.412       .  A
C2297      N2302   1.431       .  S
C2298      C2299   1.404       .  A
C2299      C2300   1.406       .  A
C2299      H2303   1.084       .  S
C2300      N2304   1.438       .  S
N2302      H2305   1.046       .  S
N2302      H2306   1.045       .  S
N2304      H2307   1.045       .  S
N2304      H2308   1.046       .  S
C2313      C2314   1.409       .  A
C2313      C2318   1.402       .  A
C2314      C2315   1.406       .  A
C2314      N2319   1.432       .  S
C2315      C2316   1.404       .  A
C2315      H2320   1.084       .  S
C2316      C2317   1.410       .  A
C2316      C2321   1.482       .  S
C2317      C2318   1.404       .  A
C2317      N2322   1.438       .  S
C2318      H2323   1.084       .  S
N2319      H2339   1.045       .  S
N2319      H2340   1.046       .  S
C2321      C2324   1.404       .  A
C2321      C2328   1.409       .  A
N2322      H2337   1.046       .  S
N2322      H2338   1.046       .  S
C2324      C2325   1.410   1_565  A
C2324      H2329   1.084       .  S
C2325      C2326   1.411       .  A
C2325      N2330   1.437       .  S
C2326      C2327   1.403       .  A
C2327      C2328   1.402   1_545  A
C2327      H2331   1.084       .  S
C2328      N2332   1.438       .  S
N2330      H2333   1.046       .  S
N2330      H2334   1.046       .  S
N2332      H2335   1.046       .  S
N2332      H2336   1.046       .  S
C2341      C2342   1.418       .  A
C2341      C2346   1.403       .  A
C2342      C2343   1.402       .  A
C2342      N2347   1.439       .  S
C2343      C2344   1.400       .  A
C2343      H2348   1.084       .  S
C2344      C2345   1.412       .  A
C2344      C2349   1.484       .  S
C2345      C2346   1.406       .  A
C2345      N2350   1.438       .  S
C2346      H2351   1.083       .  S
N2347      H2367   1.046       .  S
N2347      H2368   1.046       .  S
C2349      C2352   1.401       .  A
C2349      C2356   1.410       .  A
N2350      H2365   1.046       .  S
N2350      H2366   1.045       .  S
C2352      C2353   1.405       .  A
C2352      H2357   1.084       .  S
C2353      C2354   1.418       .  A
C2353      N2358   1.437       .  S
C2354      C2355   1.407       .  A
C2355      C2356   1.404       .  A
C2355      H2359   1.083       .  S
C2356      N2360   1.438       .  S
N2358      H2361   1.046       .  S
N2358      H2362   1.046       .  S
N2360      H2363   1.046       .  S
N2360      H2364   1.045       .  S
C2369      C2370   1.417       .  A
C2369      C2374   1.408       .  A
C2370      C2371   1.410       .  A
C2370      N2375   1.437       .  S
C2371      C2372   1.402       .  A
C2371      H2376   1.084       .  S
C2372      C2373   1.406       .  A
C2372      C2377   1.483       .  S
C2373      C2374   1.404       .  A
C2373      N2378   1.438       .  S
C2374      H2379   1.083       .  S
N2375      H2395   1.046       .  S
N2375      H2396   1.046       .  S
C2377      C2380   1.398       .  A
C2377      C2384   1.407       .  A
N2378      H2393   1.046       .  S
N2378      H2394   1.046       .  S
C2380      C2381   1.405       .  A
C2380      H2385   1.084       .  S
C2381      C2382   1.422       .  A
C2381      N2386   1.439       .  S
C2382      C2383   1.410       .  A
C2383      C2384   1.409       .  A
C2383      H2387   1.083       .  S
C2384      N2388   1.437       .  S
N2386      H2389   1.046       .  S
N2386      H2390   1.046       .  S
N2388      H2391   1.046       .  S
N2388      H2392   1.046       .  S
C2397      C2398   1.413       .  A
C2397      C2402   1.406       .  A
C2398      C2399   1.406       .  A
C2398      N2403   1.431       .  S
C2399      C2400   1.401       .  A
C2399      H2404   1.084       .  S
C2400      C2401   1.408       .  A
C2400      C2405   1.478   1_556  S
C2401      C2402   1.404       .  A
C2401      N2406   1.438       .  S
C2402      H2407   1.084       .  S
N2403      H2423   1.045       .  S
N2403      H2424   1.046       .  S
C2405      C2408   1.397       .  A
C2405      C2412   1.409       .  A
N2406      H2421   1.045       .  S
N2406      H2422   1.045       .  S
C2408      C2409   1.397       .  A
C2408      H2413   1.084       .  S
C2409      C2410   1.414       .  A
C2409      N2414   1.433       .  S
C2410      C2411   1.408       .  A
C2411      C2412   1.412       .  A
C2411      H2415   1.083       .  S
C2412      N2416   1.437       .  S
N2414      H2417   1.045       .  S
N2414      H2418   1.046       .  S
N2416      H2419   1.046       .  S
N2416      H2420   1.045       .  S
C2425      C2426   1.417       .  A
C2425      C2430   1.406       .  A
C2426      C2427   1.408       .  A
C2426      N2431   1.438       .  S
C2427      C2428   1.402       .  A
C2427      H2432   1.084       .  S
C2428      C2429   1.408       .  A
C2428      C2433   1.481       .  S
C2429      C2430   1.400       .  A
C2429      N2434   1.439       .  S
C2430      H2435   1.083       .  S
N2431      H2451   1.046       .  S
N2431      H2452   1.046       .  S
C2433      C2436   1.401       .  A
C2433      C2440   1.410       .  A
N2434      H2449   1.046       .  S
N2434      H2450   1.046       .  S
C2436      C2437   1.399       .  A
C2436      H2441   1.084       .  S
C2437      C2438   1.412       .  A
C2437      N2442   1.433       .  S
C2438      C2439   1.406       .  A
C2439      C2440   1.407       .  A
C2439      H2443   1.083       .  S
C2440      N2444   1.438       .  S
N2442      H2445   1.046       .  S
N2442      H2446   1.046       .  S
N2444      H2447   1.046       .  S
N2444      H2448   1.045       .  S
C2453      C2454   1.414       .  A
C2453      C2458   1.411       .  A
C2454      C2455   1.405       .  A
C2454      N2459   1.432       .  S
C2455      C2456   1.402       .  A
C2455      H2460   1.084       .  S
C2456      C2457   1.405       .  A
C2456      C2461   1.477       .  S
C2457      C2458   1.402       .  A
C2457      N2462   1.438       .  S
C2458      H2463   1.083       .  S
N2459      H2479   1.046       .  S
N2459      H2480   1.046       .  S
C2461      C2464   1.400       .  A
C2461      C2468   1.405       .  A
N2462      H2477   1.046       .  S
N2462      H2478   1.046       .  S
C2464      C2465   1.407       .  A
C2464      H2469   1.084       .  S
C2465      C2466   1.419       .  A
C2465      N2470   1.438       .  S
C2466      C2467   1.410       .  A
C2467      C2468   1.402       .  A
C2467      H2471   1.083       .  S
C2468      N2472   1.438       .  S
N2470      H2473   1.046       .  S
N2470      H2474   1.046       .  S
N2472      H2475   1.046       .  S
N2472      H2476   1.046       .  S
C2481      C2482   1.412       .  A
C2481      C2486   1.405       .  A
C2482      C2483   1.407       .  A
C2482      N2487   1.432       .  S
C2483      C2484   1.401       .  A
C2483      H2488   1.084       .  S
C2484      C2485   1.409       .  A
C2484      C2489   1.479   1_556  S
C2485      C2486   1.404       .  A
C2485      N2490   1.438       .  S
C2486      H2491   1.084       .  S
N2487      H2507   1.045       .  S
N2487      H2508   1.046       .  S
C2489      C2492   1.403       .  A
C2489      C2496   1.409       .  A
N2490      H2505   1.046       .  S
N2490      H2506   1.045       .  S
C2492      C2493   1.409       .  A
C2492      H2497   1.084       .  S
C2493      C2494   1.412       .  A
C2493      N2498   1.438       .  S
C2494      C2495   1.402       .  A
C2495      C2496   1.403       .  A
C2495      H2499   1.084       .  S
C2496      N2500   1.438       .  S
N2498      H2501   1.046       .  S
N2498      H2502   1.046       .  S
N2500      H2503   1.046       .  S
N2500      H2504   1.045   1_554  S
C2509      C2510   1.414       .  A
C2509      C2514   1.404       .  A
C2510      C2511   1.407       .  A
C2510      N2515   1.438       .  S
C2511      C2512   1.404       .  A
C2511      H2516   1.084       .  S
C2512      C2513   1.409       .  A
C2512      C2517   1.484       .  S
C2513      C2514   1.402       .  A
C2513      N2518   1.438       .  S
C2514      H2519   1.083       .  S
N2515      H2535   1.046       .  S
N2515      H2536   1.046       .  S
C2517      C2520   1.402       .  A
C2517      C2524   1.409       .  A
N2518      H2533   1.046       .  S
N2518      H2534   1.045       .  S
C2520      C2521   1.406       .  A
C2520      H2525   1.084       .  S
C2521      C2522   1.418       .  A
C2521      N2526   1.438       .  S
C2522      C2523   1.406       .  A
C2523      C2524   1.403       .  A
C2523      H2527   1.083       .  S
C2524      N2528   1.438       .  S
N2526      H2529   1.046       .  S
N2526      H2530   1.046       .  S
N2528      H2531   1.045       .  S
N2528      H2532   1.046       .  S
C2537      C2538   1.415       .  A
C2537      C2542   1.406       .  A
C2538      C2539   1.405       .  A
C2538      N2543   1.438       .  S
C2539      C2540   1.401       .  A
C2539      H2544   1.084       .  S
C2540      C2541   1.405       .  A
C2540      C2545   1.474       .  S
C2541      C2542   1.401       .  A
C2541      N2546   1.438       .  S
C2542      H2547   1.083       .  S
N2543      H2563   1.045       .  S
N2543      H2564   1.046       .  S
C2545      C2548   1.398       .  A
C2545      C2552   1.406       .  A
N2546      H2561   1.046       .  S
N2546      H2562   1.046       .  S
C2548      C2549   1.401       .  A
C2548      H2553   1.084       .  S
C2549      C2550   1.417       .  A
C2549      N2554   1.433       .  S
C2550      C2551   1.410       .  A
C2551      C2552   1.404       .  A
C2551      H2555   1.083       .  S
C2552      N2556   1.438       .  S
N2554      H2557   1.046       .  S
N2554      H2558   1.046       .  S
N2556      H2559   1.046       .  S
N2556      H2560   1.046       .  S
C2565      C2566   1.407       .  A
C2565      C2570   1.403       .  A
C2566      C2567   1.400       .  A
C2566      N2571   1.432       .  S
C2567      C2568   1.400       .  A
C2567      H2572   1.084       .  S
C2568      C2569   1.408       .  A
C2568      C2573   1.470       .  S
C2569      C2570   1.404       .  A
C2569      N2574   1.437       .  S
C2570      H2575   1.084       .  S
N2571      H2591   1.046       .  S
N2571      H2592   1.046       .  S
C2573      C2576   1.398       .  A
C2573      C2580   1.406       .  A
N2574      H2589   1.046       .  S
N2574      H2590   1.045       .  S
C2576      C2577   1.399       .  A
C2576      H2581   1.084       .  S
C2577      C2578   1.414   1_565  A
C2577      N2582   1.438   1_565  S
C2578      C2579   1.407       .  A
C2579      C2580   1.406   1_545  A
C2579      H2583   1.083       .  S
C2580      N2584   1.437       .  S
N2582      H2585   1.046   1_545  S
N2582      H2586   1.045       .  S
N2584      H2587   1.046       .  S
N2584      H2588   1.045       .  S
C2593      C2594   1.410       .  A
C2593      C2598   1.406       .  A
C2594      C2595   1.404       .  A
C2594      N2599   1.432       .  S
C2595      C2596   1.404       .  A
C2595      H2600   1.084       .  S
C2596      C2597   1.411       .  A
C2596      C2601   1.487       .  S
C2597      C2598   1.405       .  A
C2597      N2602   1.438       .  S
C2598      H2603   1.084       .  S
N2599      H2619   1.045       .  S
N2599      H2620   1.046       .  S
C2601      C2604   1.402       .  A
C2601      C2608   1.411       .  A
N2602      H2617   1.046       .  S
N2602      H2618   1.046       .  S
C2604      C2605   1.403       .  A
C2604      H2609   1.084       .  S
C2605      C2606   1.413       .  A
C2605      N2610   1.432       .  S
C2606      C2607   1.409       .  A
C2607      C2608   1.408       .  A
C2607      H2611   1.083       .  S
C2608      N2612   1.438       .  S
N2610      H2613   1.046       .  S
N2610      H2614   1.046       .  S
N2612      H2615   1.046       .  S
N2612      H2616   1.046       .  S
C2621      C2622   1.415       .  A
C2621      C2626   1.406       .  A
C2622      C2623   1.404       .  A
C2622      N2627   1.438       .  S
C2623      C2624   1.400       .  A
C2623      H2628   1.084       .  S
C2624      C2625   1.407       .  A
C2624      C2629   1.475       .  S
C2625      C2626   1.405       .  A
C2625      N2630   1.438       .  S
C2626      H2631   1.084       .  S
N2627      H2647   1.046       .  S
N2627      H2648   1.046       .  S
C2629      C2632   1.399       .  A
C2629      C2636   1.407       .  A
N2630      H2645   1.046       .  S
N2630      H2646   1.046       .  S
C2632      C2633   1.404       .  A
C2632      H2637   1.084       .  S
C2633      C2634   1.416       .  A
C2633      N2638   1.438       .  S
C2634      C2635   1.406       .  A
C2635      C2636   1.403       .  A
C2635      H2639   1.083       .  S
C2636      N2640   1.438       .  S
N2638      H2641   1.046       .  S
N2638      H2642   1.046       .  S
N2640      H2643   1.046       .  S
N2640      H2644   1.046       .  S
C2649      C2650   1.415       .  A
C2649      C2654   1.405       .  A
C2650      C2651   1.404       .  A
C2650      N2655   1.438       .  S
C2651      C2652   1.400       .  A
C2651      H2656   1.084       .  S
C2652      C2653   1.406       .  A
C2652      C2657   1.474   1_655  S
C2653      C2654   1.404       .  A
C2653      N2658   1.437       .  S
C2654      H2659   1.083       .  S
N2655      H2675   1.046       .  S
N2655      H2676   1.046       .  S
C2657      C2660   1.399       .  A
C2657      C2664   1.408       .  A
N2658      H2673   1.045       .  S
N2658      H2674   1.046       .  S
C2660      C2661   1.400       .  A
C2660      H2665   1.084       .  S
C2661      C2662   1.410       .  A
C2661      N2666   1.438       .  S
C2662      C2663   1.404       .  A
C2663      C2664   1.408       .  A
C2663      H2667   1.084       .  S
C2664      N2668   1.437       .  S
N2666      H2669   1.046       .  S
N2666      H2670   1.046       .  S
N2668      H2671   1.046       .  S
N2668      H2672   1.046       .  S
C2677      C2678   1.418       .  A
C2677      C2682   1.409       .  A
C2678      C2679   1.407       .  A
C2678      N2683   1.437       .  S
C2679      C2680   1.401       .  A
C2679      H2684   1.084       .  S
C2680      C2681   1.406       .  A
C2680      C2685   1.481       .  S
C2681      C2682   1.403       .  A
C2681      N2686   1.438       .  S
C2682      H2687   1.083       .  S
N2683      H2703   1.045       .  S
N2683      H2704   1.046       .  S
C2685      C2688   1.401       .  A
C2685      C2692   1.408       .  A
N2686      H2701   1.046       .  S
N2686      H2702   1.046       .  S
C2688      C2689   1.402       .  A
C2688      H2693   1.084       .  S
C2689      C2690   1.415       .  A
C2689      N2694   1.433       .  S
C2690      C2691   1.408       .  A
C2691      C2692   1.405       .  A
C2691      H2695   1.083       .  S
C2692      N2696   1.438       .  S
N2694      H2697   1.046       .  S
N2694      H2698   1.046       .  S
N2696      H2699   1.046       .  S
N2696      H2700   1.046       .  S
C2705      C2706   1.415       .  A
C2705      C2710   1.408       .  A
C2706      C2707   1.404       .  A
C2706      N2711   1.438       .  S
C2707      C2708   1.401       .  A
C2707      H2712   1.084       .  S
C2708      C2709   1.406       .  A
C2708      C2713   1.476       .  S
C2709      C2710   1.401       .  A
C2709      N2714   1.438       .  S
C2710      H2715   1.083       .  S
N2711      H2731   1.046       .  S
N2711      H2732   1.046       .  S
C2713      C2716   1.399       .  A
C2713      C2720   1.407       .  A
N2714      H2729   1.046       .  S
N2714      H2730   1.046       .  S
C2716      C2717   1.400       .  A
C2716      H2721   1.084       .  S
C2717      C2718   1.416       .  A
C2717      N2722   1.433       .  S
C2718      C2719   1.408       .  A
C2719      C2720   1.403       .  A
C2719      H2723   1.083       .  S
C2720      N2724   1.438       .  S
N2722      H2725   1.046       .  S
N2722      H2726   1.046       .  S
N2724      H2727   1.046       .  S
N2724      H2728   1.045       .  S
C2733      C2734   1.411       .  A
C2733      C2738   1.405       .  A
C2734      C2735   1.400       .  A
C2734      N2739   1.438       .  S
C2735      C2736   1.400       .  A
C2735      H2740   1.084       .  S
C2736      C2737   1.409       .  A
C2736      C2741   1.475       .  S
C2737      C2738   1.408       .  A
C2737      N2742   1.437       .  S
C2738      H2743   1.084       .  S
N2739      H2759   1.046       .  S
N2739      H2760   1.046       .  S
C2741      C2744   1.402       .  A
C2741      C2748   1.407       .  A
N2742      H2757   1.046       .  S
N2742      H2758   1.046       .  S
C2744      C2745   1.410   1_565  A
C2744      H2749   1.084       .  S
C2745      C2746   1.414       .  A
C2745      N2750   1.437       .  S
C2746      C2747   1.404       .  A
C2747      C2748   1.399   1_545  A
C2747      H2751   1.084       .  S
C2748      N2752   1.439       .  S
N2750      H2753   1.046       .  S
N2750      H2754   1.046       .  S
N2752      H2755   1.046       .  S
N2752      H2756   1.046       .  S
C2761      C2762   1.418       .  A
C2761      C2766   1.410       .  A
C2762      C2763   1.403       .  A
C2762      N2767   1.432       .  S
C2763      C2764   1.399       .  A
C2763      H2768   1.084       .  S
C2764      C2765   1.405       .  A
C2764      C2769   1.476       .  S
C2765      C2766   1.404       .  A
C2765      N2770   1.438       .  S
C2766      H2771   1.083       .  S
N2767      H2787   1.046       .  S
N2767      H2788   1.046       .  S
C2769      C2772   1.400       .  A
C2769      C2776   1.407       .  A
N2770      H2785   1.045       .  S
N2770      H2786   1.046       .  S
C2772      C2773   1.405       .  A
C2772      H2777   1.084       .  S
C2773      C2774   1.415       .  A
C2773      N2778   1.438       .  S
C2774      C2775   1.405       .  A
C2775      C2776   1.404       .  A
C2775      H2779   1.084       .  S
C2776      N2780   1.438       .  S
N2778      H2781   1.046       .  S
N2778      H2782   1.046       .  S
N2780      H2783   1.046       .  S
N2780      H2784   1.046       .  S
C2789      C2790   1.418       .  A
C2789      C2794   1.408       .  A
C2790      C2791   1.406       .  A
C2790      N2795   1.438       .  S
C2791      C2792   1.401       .  A
C2791      H2796   1.084       .  S
C2792      C2793   1.406       .  A
C2792      C2797   1.479       .  S
C2793      C2794   1.401       .  A
C2793      N2798   1.438       .  S
C2794      H2799   1.083       .  S
N2795      H2815   1.045       .  S
N2795      H2816   1.046       .  S
C2797      C2800   1.400       .  A
C2797      C2804   1.407       .  A
N2798      H2813   1.046       .  S
N2798      H2814   1.046       .  S
C2800      C2801   1.405       .  A
C2800      H2805   1.084       .  S
C2801      C2802   1.419       .  A
C2801      N2806   1.438       .  S
C2802      C2803   1.409       .  A
C2803      C2804   1.402       .  A
C2803      H2807   1.083       .  S
C2804      N2808   1.438       .  S
N2806      H2809   1.046       .  S
N2806      H2810   1.046       .  S
N2808      H2811   1.046       .  S
N2808      H2812   1.046       .  S
C2817      C2818   1.413       .  A
C2817      C2822   1.406       .  A
C2818      C2819   1.404       .  A
C2818      N2823   1.438       .  S
C2819      C2820   1.400       .  A
C2819      H2824   1.084       .  S
C2820      C2821   1.406       .  A
C2820      C2825   1.476   1_655  S
C2821      C2822   1.406       .  A
C2821      N2826   1.437       .  S
C2822      H2827   1.084       .  S
N2823      H2843   1.046       .  S
N2823      H2844   1.046       .  S
C2825      C2828   1.400       .  A
C2825      C2832   1.409       .  A
N2826      H2841   1.046       .  S
N2826      H2842   1.046       .  S
C2828      C2829   1.402       .  A
C2828      H2833   1.084       .  S
C2829      C2830   1.409       .  A
C2829      N2834   1.438       .  S
C2830      C2831   1.403       .  A
C2831      C2832   1.407       .  A
C2831      H2835   1.084       .  S
C2832      N2836   1.437       .  S
N2834      H2837   1.046       .  S
N2834      H2838   1.046       .  S
N2836      H2839   1.046       .  S
N2836      H2840   1.046       .  S
C2845      C2846   1.418       .  A
C2845      C2850   1.408       .  A
C2846      C2847   1.405       .  A
C2846      N2851   1.438       .  S
C2847      C2848   1.400       .  A
C2847      H2852   1.084       .  S
C2848      C2849   1.409       .  A
C2848      C2853   1.485       .  S
C2849      C2850   1.408       .  A
C2849      N2854   1.438       .  S
C2850      H2855   1.083       .  S
N2851      H2871   1.046       .  S
N2851      H2872   1.046       .  S
C2853      C2856   1.402       .  A
C2853      C2860   1.409       .  A
N2854      H2869   1.046       .  S
N2854      H2870   1.046       .  S
C2856      C2857   1.408       .  A
C2856      H2861   1.084       .  S
C2857      C2858   1.417       .  A
C2857      N2862   1.438       .  S
C2858      C2859   1.407       .  A
C2859      C2860   1.406       .  A
C2859      H2863   1.083       .  S
C2860      N2864   1.438       .  S
N2862      H2865   1.046       .  S
N2862      H2866   1.046       .  S
N2864      H2867   1.045       .  S
N2864      H2868   1.046       .  S
C2873      C2874   1.418       .  A
C2873      C2878   1.409       .  A
C2874      C2875   1.410       .  A
C2874      N2879   1.437       .  S
C2875      C2876   1.401       .  A
C2875      H2880   1.084       .  S
C2876      C2877   1.405       .  A
C2876      C2881   1.480       .  S
C2877      C2878   1.404       .  A
C2877      N2882   1.438       .  S
C2878      H2883   1.083       .  S
N2879      H2899   1.046       .  S
N2879      H2900   1.046       .  S
C2881      C2884   1.400       .  A
C2881      C2888   1.406       .  A
N2882      H2897   1.045       .  S
N2882      H2898   1.045       .  S
C2884      C2885   1.407       .  A
C2884      H2889   1.084       .  S
C2885      C2886   1.419       .  A
C2885      N2890   1.438       .  S
C2886      C2887   1.410       .  A
C2887      C2888   1.405       .  A
C2887      H2891   1.083       .  S
C2888      N2892   1.438       .  S
N2890      H2893   1.046       .  S
N2890      H2894   1.045       .  S
N2892      H2895   1.046       .  S
N2892      H2896   1.045       .  S
C2901      C2902   1.417       .  A
C2901      C2906   1.408       .  A
C2902      C2903   1.403       .  A
C2902      N2907   1.438       .  S
C2903      C2904   1.398   1_556  A
C2903      H2908   1.084   1_556  S
C2904      C2905   1.409   1_554  A
C2904      C2909   1.482       .  S
C2905      C2906   1.411       .  A
C2905      N2910   1.437       .  S
C2906      H2911   1.083       .  S
N2907      H2927   1.046       .  S
N2907      H2928   1.046       .  S
C2909      C2912   1.403       .  A
C2909      C2916   1.410       .  A
N2910      H2925   1.046       .  S
N2910      H2926   1.045   1_556  S
C2912      C2913   1.410       .  A
C2912      H2917   1.084       .  S
C2913      C2914   1.412       .  A
C2913      N2918   1.437       .  S
C2914      C2915   1.402       .  A
C2915      C2916   1.405       .  A
C2915      H2919   1.084       .  S
C2916      N2920   1.438       .  S
N2918      H2921   1.045       .  S
N2918      H2922   1.046       .  S
N2920      H2923   1.046       .  S
N2920      H2924   1.045       .  S
C2929      C2930   1.419       .  A
C2929      C2934   1.409       .  A
C2930      C2931   1.407       .  A
C2930      N2935   1.438       .  S
C2931      C2932   1.401       .  A
C2931      H2936   1.084       .  S
C2932      C2933   1.407       .  A
C2932      C2937   1.480       .  S
C2933      C2934   1.401       .  A
C2933      N2938   1.438       .  S
C2934      H2939   1.083       .  S
N2935      H2955   1.046       .  S
N2935      H2956   1.046       .  S
C2937      C2940   1.399       .  A
C2937      C2944   1.410       .  A
N2938      H2953   1.046       .  S
N2938      H2954   1.045       .  S
C2940      C2941   1.401       .  A
C2940      H2945   1.084       .  S
C2941      C2942   1.414       .  A
C2941      N2946   1.437       .  S
C2942      C2943   1.406       .  A
C2943      C2944   1.408       .  A
C2943      H2947   1.084       .  S
C2944      N2948   1.438       .  S
N2946      H2949   1.046       .  S
N2946      H2950   1.046       .  S
N2948      H2951   1.046       .  S
N2948      H2952   1.046       .  S
C2957      C2958   1.415       .  A
C2957      C2962   1.406       .  A
C2958      C2959   1.405       .  A
C2958      N2963   1.437       .  S
C2959      C2960   1.399       .  A
C2959      H2964   1.084       .  S
C2960      C2961   1.406       .  A
C2960      C2965   1.473       .  S
C2961      C2962   1.401       .  A
C2961      N2966   1.438       .  S
C2962      H2967   1.084       .  S
N2963      H2983   1.046       .  S
N2963      H2984   1.046       .  S
C2965      C2968   1.398       .  A
C2965      C2972   1.407       .  A
N2966      H2981   1.046       .  S
N2966      H2982   1.046       .  S
C2968      C2969   1.401       .  A
C2968      H2973   1.084       .  S
C2969      C2970   1.415       .  A
C2969      N2974   1.438       .  S
C2970      C2971   1.407       .  A
C2971      C2972   1.405       .  A
C2971      H2975   1.084       .  S
C2972      N2976   1.438       .  S
N2974      H2977   1.046       .  S
N2974      H2978   1.046       .  S
N2976      H2979   1.046       .  S
N2976      H2980   1.046       .  S
C2985      C2986   1.411       .  A
C2985      C2990   1.406       .  A
C2986      C2987   1.402       .  A
C2986      N2991   1.438       .  S
C2987      C2988   1.401       .  A
C2987      H2992   1.084       .  S
C2988      C2989   1.408       .  A
C2988      C2993   1.476   1_655  S
C2989      C2990   1.406       .  A
C2989      N2994   1.437       .  S
C2990      H2995   1.084       .  S
N2991      H3011   1.046       .  S
N2991      H3012   1.046       .  S
C2993      C2996   1.401       .  A
C2993      C3000   1.408       .  A
N2994      H3009   1.046       .  S
N2994      H3010   1.046       .  S
C2996      C2997   1.404       .  A
C2996      H3001   1.084   1_455  S
C2997      C2998   1.410       .  A
C2997      N3002   1.438       .  S
C2998      C2999   1.403       .  A
C2999      C3000   1.406       .  A
C2999      H3003   1.084       .  S
C3000      N3004   1.437       .  S
N3002      H3005   1.046       .  S
N3002      H3006   1.046       .  S
N3004      H3007   1.046       .  S
N3004      H3008   1.046       .  S
C3013      C3014   1.419       .  A
C3013      C3018   1.410       .  A
C3014      C3015   1.404       .  A
C3014      N3019   1.437       .  S
C3015      C3016   1.401       .  A
C3015      H3020   1.084       .  S
C3016      C3017   1.410       .  A
C3016      C3021   1.489       .  S
C3017      C3018   1.407       .  A
C3017      N3022   1.438       .  S
C3018      H3023   1.083       .  S
N3019      H3039   1.046       .  S
N3019      H3040   1.046       .  S
C3021      C3024   1.403       .  A
C3021      C3028   1.413       .  A
N3022      H3037   1.046       .  S
N3022      H3038   1.045       .  S
C3024      C3025   1.405       .  A
C3024      H3029   1.084       .  S
C3025      C3026   1.414       .  A
C3025      N3030   1.432       .  S
C3026      C3027   1.405       .  A
C3027      C3028   1.406       .  A
C3027      H3031   1.083       .  S
C3028      N3032   1.438       .  S
N3030      H3033   1.046       .  S
N3030      H3034   1.046       .  S
N3032      H3035   1.046       .  S
N3032      H3036   1.045       .  S
C3041      C3042   1.417       .  A
C3041      C3046   1.405       .  A
C3042      C3043   1.406       .  A
C3042      N3047   1.438       .  S
C3043      C3044   1.400       .  A
C3043      H3048   1.084       .  S
C3044      C3045   1.409       .  A
C3044      C3049   1.481       .  S
C3045      C3046   1.407       .  A
C3045      N3050   1.438       .  S
C3046      H3051   1.083       .  S
N3047      H3067   1.046       .  S
N3047      H3068   1.046       .  S
C3049      C3052   1.402       .  A
C3049      C3056   1.408       .  A
N3050      H3065   1.046       .  S
N3050      H3066   1.046       .  S
C3052      C3053   1.406       .  A
C3052      H3057   1.084       .  S
C3053      C3054   1.414       .  A
C3053      N3058   1.438       .  S
C3054      C3055   1.405       .  A
C3055      C3056   1.405       .  A
C3055      H3059   1.084       .  S
C3056      N3060   1.438       .  S
N3058      H3061   1.046       .  S
N3058      H3062   1.046       .  S
N3060      H3063   1.046       .  S
N3060      H3064   1.046       .  S
C3069      C3070   1.414       .  A
C3069      C3074   1.405       .  A
C3070      C3071   1.407       .  A
C3070      N3075   1.438       .  S
C3071      C3072   1.402       .  A
C3071      H3076   1.084       .  S
C3072      C3073   1.409       .  A
C3072      C3077   1.484       .  S
C3073      C3074   1.409       .  A
C3073      N3078   1.437       .  S
C3074      H3079   1.083       .  S
N3075      H3095   1.046       .  S
N3075      H3096   1.046       .  S
C3077      C3080   1.400       .  A
C3077      C3084   1.411       .  A
N3078      H3093   1.046       .  S
N3078      H3094   1.046       .  S
C3080      C3081   1.401   1_565  A
C3080      H3085   1.084       .  S
C3081      C3082   1.409       .  A
C3081      N3086   1.432       .  S
C3082      C3083   1.406       .  A
C3083      C3084   1.412   1_545  A
C3083      H3087   1.084       .  S
C3084      N3088   1.437       .  S
N3086      H3089   1.045       .  S
N3086      H3090   1.046       .  S
N3088      H3091   1.046       .  S
N3088      H3092   1.046       .  S
C3097      C3098   1.408       .  A
C3097      C3102   1.400       .  A
C3098      C3099   1.401       .  A
C3098      N3103   1.438       .  S
C3099      C3100   1.401       .  A
C3099      H3104   1.084       .  S
C3100      C3101   1.409       .  A
C3100      C3105   1.473       .  S
C3101      C3102   1.402       .  A
C3101      N3106   1.438       .  S
C3102      H3107   1.084       .  S
N3103      H3123   1.046       .  S
N3103      H3124   1.046       .  S
C3105      C3108   1.399       .  A
C3105      C3112   1.409       .  A
N3106      H3121   1.046       .  S
N3106      H3122   1.046       .  S
C3108      C3109   1.398       .  A
C3108      H3113   1.084       .  S
C3109      C3110   1.409       .  A
C3109      N3114   1.432       .  S
C3110      C3111   1.404       .  A
C3111      C3112   1.404       .  A
C3111      H3115   1.084       .  S
C3112      N3116   1.438       .  S
N3114      H3117   1.045       .  S
N3114      H3118   1.046       .  S
N3116      H3119   1.046       .  S
N3116      H3120   1.046       .  S
C3125      C3126   1.413       .  A
C3125      C3130   1.404       .  A
C3126      C3127   1.403       .  A
C3126      N3131   1.438       .  S
C3127      C3128   1.400       .  A
C3127      H3132   1.084       .  S
C3128      C3129   1.407       .  A
C3128      C3133   1.475       .  S
C3129      C3130   1.405       .  A
C3129      N3134   1.437       .  S
C3130      H3135   1.084       .  S
N3131      H3151   1.046       .  S
N3131      H3152   1.046       .  S
C3133      C3136   1.401       .  A
C3133      C3140   1.407       .  A
N3134      H3149   1.046       .  S
N3134      H3150   1.046       .  S
C3136      C3137   1.404       .  A
C3136      H3141   1.084       .  S
C3137      C3138   1.411       .  A
C3137      N3142   1.438       .  S
C3138      C3139   1.405       .  A
C3139      C3140   1.404       .  A
C3139      H3143   1.084       .  S
C3140      N3144   1.437       .  S
N3142      H3145   1.046       .  S
N3142      H3146   1.046       .  S
N3144      H3147   1.046       .  S
N3144      H3148   1.045       .  S
C3153      C3154   1.415       .  A
C3153      C3158   1.406       .  A
C3154      C3155   1.403       .  A
C3154      N3159   1.437       .  S
C3155      C3156   1.399       .  A
C3155      H3160   1.084       .  S
C3156      C3157   1.405       .  A
C3156      C3161   1.478       .  S
C3157      C3158   1.405       .  A
C3157      N3162   1.432       .  S
C3158      H3163   1.084       .  S
N3159      H3179   1.046       .  S
N3159      H3180   1.046       .  S
C3161      C3164   1.403       .  A
C3161      C3168   1.417       .  A
N3162      H3177   1.046       .  S
N3162      H3178   1.046       .  S
C3164      C3165   1.399       .  A
C3164      H3169   1.084       .  S
C3165      C3166   1.406       .  A
C3165      N3170   1.432   1_545  S
C3166      C3167   1.404       .  A
C3167      C3168   1.403       .  A
C3167      H3171   1.084       .  S
C3168      N3172   1.438       .  S
N3170      H3173   1.046   1_565  S
N3170      H3174   1.045       .  S
N3172      H3175   1.045       .  S
N3172      H3176   1.043       .  S
C3181      C3182   1.420       .  A
C3181      C3186   1.406       .  A
C3182      C3183   1.404       .  A
C3182      N3187   1.438       .  S
C3183      C3184   1.398       .  A
C3183      H3188   1.084       .  S
C3184      C3185   1.408       .  A
C3184      C3189   1.476       .  S
C3185      C3186   1.402       .  A
C3185      N3190   1.438       .  S
C3186      H3191   1.083       .  S
N3187      H3207   1.046       .  S
N3187      H3208   1.046       .  S
C3189      C3192   1.401       .  A
C3189      C3196   1.409       .  A
N3190      H3205   1.046       .  S
N3190      H3206   1.046       .  S
C3192      C3193   1.401       .  A
C3192      H3197   1.084       .  S
C3193      C3194   1.410       .  A
C3193      N3198   1.438       .  S
C3194      C3195   1.404       .  A
C3195      C3196   1.404       .  A
C3195      H3199   1.084       .  S
C3196      N3200   1.437       .  S
N3198      H3201   1.046       .  S
N3198      H3202   1.044   1_545  S
N3200      H3203   1.046       .  S
N3200      H3204   1.046       .  S
C3209      C3210   1.410       .  A
C3209      C3214   1.403       .  A
C3210      C3211   1.406       .  A
C3210      N3215   1.437       .  S
C3211      C3212   1.403       .  A
C3211      H3216   1.084       .  S
C3212      C3213   1.409       .  A
C3212      C3217   1.479       .  S
C3213      C3214   1.402       .  A
C3213      N3218   1.438       .  S
C3214      H3219   1.084       .  S
N3215      H3235   1.046       .  S
N3215      H3236   1.046       .  S
C3217      C3220   1.402       .  A
C3217      C3224   1.410       .  A
N3218      H3233   1.046       .  S
N3218      H3234   1.046       .  S
C3220      C3221   1.405       .  A
C3220      H3225   1.084       .  S
C3221      C3222   1.409       .  A
C3221      N3226   1.438       .  S
C3222      C3223   1.400       .  A
C3223      C3224   1.405       .  A
C3223      H3227   1.084       .  S
C3224      N3228   1.438       .  S
N3226      H3229   1.046       .  S
N3226      H3230   1.045       .  S
N3228      H3231   1.046       .  S
N3228      H3232   1.046       .  S
C3237      C3238   1.417       .  A
C3237      C3242   1.405       .  A
C3238      C3239   1.400       .  A
C3238      N3243   1.438       .  S
C3239      C3240   1.401       .  A
C3239      H3244   1.084       .  S
C3240      C3241   1.407       .  A
C3240      C3245   1.476       .  S
C3241      C3242   1.403       .  A
C3241      N3246   1.438       .  S
C3242      H3247   1.084   1_545  S
N3243      H3263   1.043       .  S
N3243      H3264   1.045       .  S
C3245      C3248   1.401       .  A
C3245      C3252   1.406       .  A
N3246      H3261   1.046       .  S
N3246      H3262   1.046       .  S
C3248      C3249   1.404       .  A
C3248      H3253   1.084       .  S
C3249      C3250   1.414       .  A
C3249      N3254   1.438       .  S
C3250      C3251   1.407       .  A
C3251      C3252   1.404       .  A
C3251      H3255   1.084       .  S
C3252      N3256   1.438       .  S
N3254      H3257   1.046       .  S
N3254      H3258   1.046       .  S
N3256      H3259   1.046       .  S
N3256      H3260   1.046       .  S
C3265      C3266   1.411       .  A
C3265      C3270   1.406       .  A
C3266      C3267   1.404       .  A
C3266      N3271   1.432       .  S
C3267      C3268   1.403       .  A
C3267      H3272   1.084       .  S
C3268      C3269   1.412       .  A
C3268      C3273   1.487       .  S
C3269      C3270   1.405       .  A
C3269      N3274   1.438       .  S
C3270      H3275   1.083       .  S
N3271      H3291   1.046       .  S
N3271      H3292   1.046       .  S
C3273      C3276   1.403       .  A
C3273      C3280   1.413       .  A
N3274      H3289   1.046       .  S
N3274      H3290   1.045       .  S
C3276      C3277   1.404       .  A
C3276      H3281   1.084       .  S
C3277      C3278   1.411       .  A
C3277      N3282   1.438       .  S
C3278      C3279   1.403       .  A
C3279      C3280   1.407       .  A
C3279      H3283   1.084       .  S
C3280      N3284   1.438       .  S
N3282      H3285   1.046       .  S
N3282      H3286   1.046       .  S
N3284      H3287   1.046       .  S
N3284      H3288   1.046       .  S
C3293      C3294   1.411       .  A
C3293      C3298   1.403       .  A
C3294      C3295   1.403       .  A
C3294      N3299   1.438       .  S
C3295      C3296   1.400       .  A
C3295      H3300   1.084       .  S
C3296      C3297   1.408       .  A
C3296      C3301   1.471       .  S
C3297      C3298   1.403       .  A
C3297      N3302   1.438       .  S
C3298      H3303   1.084       .  S
N3299      H3319   1.046       .  S
N3299      H3320   1.046       .  S
C3301      C3304   1.399       .  A
C3301      C3308   1.407       .  A
N3302      H3317   1.046       .  S
N3302      H3318   1.044       .  S
C3304      C3305   1.402       .  A
C3304      H3309   1.084       .  S
C3305      C3306   1.414       .  A
C3305      N3310   1.438       .  S
C3306      C3307   1.404       .  A
C3307      C3308   1.403       .  A
C3307      H3311   1.084       .  S
C3308      N3312   1.438       .  S
N3310      H3313   1.046       .  S
N3310      H3314   1.046       .  S
N3312      H3315   1.046       .  S
N3312      H3316   1.044       .  S
C3321      C3322   1.417       .  A
C3321      C3326   1.407       .  A
C3322      C3323   1.405       .  A
C3322      N3327   1.438       .  S
C3323      C3324   1.401       .  A
C3323      H3328   1.084       .  S
C3324      C3325   1.406       .  A
C3324      C3329   1.478       .  S
C3325      C3326   1.402       .  A
C3325      N3330   1.438       .  S
C3326      H3331   1.083       .  S
N3327      H3347   1.046       .  S
N3327      H3348   1.046       .  S
C3329      C3332   1.402       .  A
C3329      C3336   1.409       .  A
N3330      H3345   1.045       .  S
N3330      H3346   1.046       .  S
C3332      C3333   1.400       .  A
C3332      H3337   1.084       .  S
C3333      C3334   1.418       .  A
C3333      N3338   1.438       .  S
C3334      C3335   1.402       .  A
C3335      C3336   1.402       .  A
C3335      H3339   1.084       .  S
C3336      N3340   1.438       .  S
N3338      H3341   1.046       .  S
N3338      H3342   1.043       .  S
N3340      H3343   1.046       .  S
N3340      H3344   1.046       .  S
C3349      C3350   1.407       .  A
C3349      C3354   1.404       .  A
C3350      C3351   1.399       .  A
C3350      N3355   1.432       .  S
C3351      C3352   1.400       .  A
C3351      H3356   1.084       .  S
C3352      C3353   1.409       .  A
C3352      C3357   1.472       .  S
C3353      C3354   1.405       .  A
C3353      N3358   1.438       .  S
C3354      H3359   1.084       .  S
N3355      H3375   1.046       .  S
N3355      H3376   1.045       .  S
C3357      C3360   1.399       .  A
C3357      C3364   1.406       .  A
N3358      H3373   1.046       .  S
N3358      H3374   1.044       .  S
C3360      C3361   1.403       .  A
C3360      H3365   1.084       .  S
C3361      C3362   1.413       .  A
C3361      N3366   1.437       .  S
C3362      C3363   1.406       .  A
C3363      C3364   1.404       .  A
C3363      H3367   1.084       .  S
C3364      N3368   1.438       .  S
N3366      H3369   1.046       .  S
N3366      H3370   1.046       .  S
N3368      H3371   1.046       .  S
N3368      H3372   1.044       .  S
C3377      C3378   1.418       .  A
C3377      C3382   1.404       .  A
C3378      C3379   1.401       .  A
C3378      N3383   1.438       .  S
C3379      C3380   1.401       .  A
C3379      H3384   1.084       .  S
C3380      C3381   1.407       .  A
C3380      C3385   1.475       .  S
C3381      C3382   1.402       .  A
C3381      N3386   1.438       .  S
C3382      H3387   1.084       .  S
N3383      H3403   1.043   1_545  S
N3383      H3404   1.046   1_545  S
C3385      C3388   1.400       .  A
C3385      C3392   1.409       .  A
N3386      H3401   1.046       .  S
N3386      H3402   1.045       .  S
C3388      C3389   1.405       .  A
C3388      H3393   1.084       .  S
C3389      C3390   1.410       .  A
C3389      N3394   1.438       .  S
C3390      C3391   1.403       .  A
C3391      C3392   1.405       .  A
C3391      H3395   1.084       .  S
C3392      N3396   1.438       .  S
N3394      H3397   1.046       .  S
N3394      H3398   1.046       .  S
N3396      H3399   1.046       .  S
N3396      H3400   1.045       .  S
C3405      C3406   1.408       .  A
C3405      C3410   1.401       .  A
C3406      C3407   1.403       .  A
C3406      N3411   1.437       .  S
C3407      C3408   1.403       .  A
C3407      H3412   1.084       .  S
C3408      C3409   1.418       .  A
C3408      C3413   1.477       .  S
C3409      C3410   1.397       .  A
C3409      N3414   1.440       .  S
C3410      H3415   1.084       .  S
N3411      H3431   1.045       .  S
N3411      H3432   1.046       .  S
C3413      C3416   1.399       .  A
C3413      C3420   1.409       .  A
N3414      H3429   1.046       .  S
N3414      H3430   1.043       .  S
C3416      C3417   1.397       .  A
C3416      H3421   1.084       .  S
C3417      C3418   1.414       .  A
C3417      N3422   1.433       .  S
C3418      C3419   1.407       .  A
C3419      C3420   1.405       .  A
C3419      H3423   1.083       .  S
C3420      N3424   1.438       .  S
N3422      H3425   1.046       .  S
N3422      H3426   1.046       .  S
N3424      H3427   1.046       .  S
N3424      H3428   1.045       .  S
C3433      C3434   1.416       .  A
C3433      C3438   1.402       .  A
C3434      C3435   1.402       .  A
C3434      N3439   1.438       .  S
C3435      C3436   1.402       .  A
C3435      H3440   1.084       .  S
C3436      C3437   1.412       .  A
C3436      C3441   1.483       .  S
C3437      C3438   1.404       .  A
C3437      N3442   1.438       .  S
C3438      H3443   1.084       .  S
N3439      H3459   1.043       .  S
N3439      H3460   1.045       .  S
C3441      C3444   1.399       .  A
C3441      C3448   1.411       .  A
N3442      H3457   1.046       .  S
N3442      H3458   1.046       .  S
C3444      C3445   1.399       .  A
C3444      H3449   1.084       .  S
C3445      C3446   1.415       .  A
C3445      N3450   1.433       .  S
C3446      C3447   1.406       .  A
C3447      C3448   1.408       .  A
C3447      H3451   1.083       .  S
C3448      N3452   1.437       .  S
N3450      H3453   1.045       .  S
N3450      H3454   1.046       .  S
N3452      H3455   1.046       .  S
N3452      H3456   1.046       .  S
C3461      C3462   1.411       .  A
C3461      C3466   1.404       .  A
C3462      C3463   1.403       .  A
C3462      N3467   1.432       .  S
C3463      C3464   1.399       .  A
C3463      H3468   1.084       .  S
C3464      C3465   1.408       .  A
C3464      C3469   1.472       .  S
C3465      C3466   1.402       .  A
C3465      N3470   1.438       .  S
C3466      H3471   1.084       .  S
N3467      H3487   1.046       .  S
N3467      H3488   1.046       .  S
C3469      C3472   1.400       .  A
C3469      C3476   1.408       .  A
N3470      H3485   1.046       .  S
N3470      H3486   1.045       .  S
C3472      C3473   1.401       .  A
C3472      H3477   1.084       .  S
C3473      C3474   1.409       .  A
C3473      N3478   1.432       .  S
C3474      C3475   1.404       .  A
C3475      C3476   1.403       .  A
C3475      H3479   1.084       .  S
C3476      N3480   1.438       .  S
N3478      H3481   1.046       .  S
N3478      H3482   1.045       .  S
N3480      H3483   1.046       .  S
N3480      H3484   1.045       .  S
C3489      C3490   1.409       .  A
C3489      C3494   1.400       .  A
C3490      C3491   1.404       .  A
C3490      N3495   1.438       .  S
C3491      C3492   1.405       .  A
C3491      H3496   1.083       .  S
C3492      C3493   1.413       .  A
C3492      C3497   1.484       .  S
C3493      C3494   1.403       .  A
C3493      N3498   1.438       .  S
C3494      H3499   1.084       .  S
N3495      H3515   1.045       .  S
N3495      H3516   1.046       .  S
C3497      C3500   1.403       .  A
C3497      C3504   1.412       .  A
N3498      H3513   1.046       .  S
N3498      H3514   1.046       .  S
C3500      C3501   1.400       .  A
C3500      H3505   1.084       .  S
C3501      C3502   1.408       .  A
C3501      N3506   1.432       .  S
C3502      C3503   1.404       .  A
C3503      C3504   1.406       .  A
C3503      H3507   1.084       .  S
C3504      N3508   1.438       .  S
N3506      H3509   1.046       .  S
N3506      H3510   1.045       .  S
N3508      H3511   1.046       .  S
N3508      H3512   1.045       .  S
C3517      C3518   1.408       .  A
C3517      C3522   1.404       .  A
C3518      C3519   1.399       .  A
C3518      N3523   1.432       .  S
C3519      C3520   1.402       .  A
C3519      H3524   1.084       .  S
C3520      C3521   1.412       .  A
C3520      C3525   1.484       .  S
C3521      C3522   1.408       .  A
C3521      N3526   1.437       .  S
C3522      H3527   1.084       .  S
N3523      H3543   1.046       .  S
N3523      H3544   1.045       .  S
C3525      C3528   1.401       .  A
C3525      C3532   1.410       .  A
N3526      H3541   1.046       .  S
N3526      H3542   1.046       .  S
C3528      C3529   1.402       .  A
C3528      H3533   1.084       .  S
C3529      C3530   1.415       .  A
C3529      N3534   1.432       .  S
C3530      C3531   1.407       .  A
C3531      C3532   1.405       .  A
C3531      H3535   1.083       .  S
C3532      N3536   1.438       .  S
N3534      H3537   1.046       .  S
N3534      H3538   1.046       .  S
N3536      H3539   1.046       .  S
N3536      H3540   1.046       .  S
C3545      C3546   1.413       .  A
C3545      C3550   1.404       .  A
C3546      C3547   1.404       .  A
C3546      N3551   1.438       .  S
C3547      C3548   1.403       .  A
C3547      H3552   1.084       .  S
C3548      C3549   1.410       .  A
C3548      C3553   1.482       .  S
C3549      C3550   1.403       .  A
C3549      N3554   1.438       .  S
C3550      H3555   1.084       .  S
N3551      H3571   1.046       .  S
N3551      H3572   1.046       .  S
C3553      C3556   1.405       .  A
C3553      C3560   1.412       .  A
N3554      H3569   1.046       .  S
N3554      H3570   1.046       .  S
C3556      C3557   1.403       .  A
C3556      H3561   1.084       .  S
C3557      C3558   1.406       .  A
C3557      N3562   1.437       .  S
C3558      C3559   1.400       .  A
C3559      C3560   1.403       .  A
C3559      H3563   1.084       .  S
C3560      N3564   1.438       .  S
N3562      H3565   1.046       .  S
N3562      H3566   1.045       .  S
N3564      H3567   1.046       .  S
N3564      H3568   1.045       .  S
C3573      C3574   1.407       .  A
C3573      C3578   1.403       .  A
C3574      C3575   1.400       .  A
C3574      N3579   1.432   1_545  S
C3575      C3576   1.402       .  A
C3575      H3580   1.084       .  S
C3576      C3577   1.418       .  A
C3576      C3581   1.479       .  S
C3577      C3578   1.402       .  A
C3577      N3582   1.438       .  S
C3578      H3583   1.084       .  S
N3579      H3599   1.045       .  S
N3579      H3600   1.046   1_565  S
C3581      C3584   1.400       .  A
C3581      C3588   1.409       .  A
N3582      H3597   1.045       .  S
N3582      H3598   1.043       .  S
C3584      C3585   1.403       .  A
C3584      H3589   1.084       .  S
C3585      C3586   1.413       .  A
C3585      N3590   1.437       .  S
C3586      C3587   1.405       .  A
C3587      C3588   1.407       .  A
C3587      H3591   1.084       .  S
C3588      N3592   1.438       .  S
N3590      H3593   1.046       .  S
N3590      H3594   1.046       .  S
N3592      H3595   1.046       .  S
N3592      H3596   1.044       .  S
C3601      C3602   1.407       .  A
C3601      C3606   1.399       .  A
C3602      C3603   1.406       .  A
C3602      N3607   1.437       .  S
C3603      C3604   1.404       .  A
C3603      H3608   1.084       .  S
C3604      C3605   1.410       .  A
C3604      C3609   1.480       .  S
C3605      C3606   1.403       .  A
C3605      N3610   1.437       .  S
C3606      H3611   1.084       .  S
N3607      H3627   1.046       .  S
N3607      H3628   1.046       .  S
C3609      C3612   1.403       .  A
C3609      C3616   1.410       .  A
N3610      H3625   1.046       .  S
N3610      H3626   1.045       .  S
C3612      C3613   1.402       .  A
C3612      H3617   1.084       .  S
C3613      C3614   1.409       .  A
C3613      N3618   1.438       .  S
C3614      C3615   1.403       .  A
C3615      C3616   1.406       .  A
C3615      H3619   1.084       .  S
C3616      N3620   1.437       .  S
N3618      H3621   1.046       .  S
N3618      H3622   1.046       .  S
N3620      H3623   1.046       .  S
N3620      H3624   1.046       .  S
C3629      C3630   1.406       .  A
C3629      C3634   1.399       .  A
C3630      C3631   1.403       .  A
C3630      N3635   1.437       .  S
C3631      C3632   1.404       .  A
C3631      H3636   1.084       .  S
C3632      C3633   1.410       .  A
C3632      C3637   1.477       .  S
C3633      C3634   1.400       .  A
C3633      N3638   1.438       .  S
C3634      H3639   1.084       .  S
N3635      H3655   1.045       .  S
N3635      H3656   1.046       .  S
C3637      C3640   1.402       .  A
C3637      C3644   1.409       .  A
N3638      H3653   1.046       .  S
N3638      H3654   1.046       .  S
C3640      C3641   1.401       .  A
C3640      H3645   1.084       .  S
C3641      C3642   1.412       .  A
C3641      N3646   1.438       .  S
C3642      C3643   1.404       .  A
C3643      C3644   1.402       .  A
C3643      H3647   1.084       .  S
C3644      N3648   1.438       .  S
N3646      H3649   1.046       .  S
N3646      H3650   1.046       .  S
N3648      H3651   1.046       .  S
N3648      H3652   1.046       .  S
C3657      C3658   1.409       .  A
C3657      C3662   1.400       .  A
C3658      C3659   1.404       .  A
C3658      N3663   1.438       .  S
C3659      C3660   1.404       .  A
C3659      H3664   1.083       .  S
C3660      C3661   1.414       .  A
C3660      C3665   1.488       .  S
C3661      C3662   1.406       .  A
C3661      N3666   1.437       .  S
C3662      H3667   1.084       .  S
N3663      H3683   1.045       .  S
N3663      H3684   1.046       .  S
C3665      C3668   1.404       .  A
C3665      C3672   1.413       .  A
N3666      H3681   1.046       .  S
N3666      H3682   1.046       .  S
C3668      C3669   1.404       .  A
C3668      H3673   1.084       .  S
C3669      C3670   1.411       .  A
C3669      N3674   1.438       .  S
C3670      C3671   1.403       .  A
C3671      C3672   1.408       .  A
C3671      H3675   1.084       .  S
C3672      N3676   1.438       .  S
N3674      H3677   1.046       .  S
N3674      H3678   1.046       .  S
N3676      H3679   1.046       .  S
N3676      H3680   1.046       .  S
C3685      C3686   1.407       .  A
C3685      C3690   1.400       .  A
C3686      C3687   1.401       .  A
C3686      N3691   1.438       .  S
C3687      C3688   1.404       .  A
C3687      H3692   1.084       .  S
C3688      C3689   1.410       .  A
C3688      C3693   1.478       .  S
C3689      C3690   1.403       .  A
C3689      N3694   1.437       .  S
C3690      H3695   1.084       .  S
N3691      H3711   1.045       .  S
N3691      H3712   1.046       .  S
C3693      C3696   1.402       .  A
C3693      C3700   1.410       .  A
N3694      H3709   1.046       .  S
N3694      H3710   1.046       .  S
C3696      C3697   1.400       .  A
C3696      H3701   1.084       .  S
C3697      C3698   1.410       .  A
C3697      N3702   1.432       .  S
C3698      C3699   1.403       .  A
C3699      C3700   1.402       .  A
C3699      H3703   1.084       .  S
C3700      N3704   1.438       .  S
N3702      H3705   1.046       .  S
N3702      H3706   1.046       .  S
N3704      H3707   1.046       .  S
N3704      H3708   1.046       .  S
C3713      C3714   1.416       .  A
C3713      C3718   1.400       .  A
C3714      C3715   1.396       .  A
C3714      N3719   1.440       .  S
C3715      C3716   1.401       .  A
C3715      H3720   1.084       .  S
C3716      C3717   1.411       .  A
C3716      C3721   1.478       .  S
C3717      C3718   1.403       .  A
C3717      N3722   1.437       .  S
C3718      H3723   1.084       .  S
N3719      H3739   1.043       .  S
N3719      H3740   1.045       .  S
C3721      C3724   1.401       .  A
C3721      C3728   1.411       .  A
N3722      H3737   1.046       .  S
N3722      H3738   1.045       .  S
C3724      C3725   1.399       .  A
C3724      H3729   1.084       .  S
C3725      C3726   1.410       .  A
C3725      N3730   1.431       .  S
C3726      C3727   1.404       .  A
C3727      C3728   1.404       .  A
C3727      H3731   1.084       .  S
C3728      N3732   1.438       .  S
N3730      H3733   1.045       .  S
N3730      H3734   1.046       .  S
N3732      H3735   1.046       .  S
N3732      H3736   1.046       .  S
C3741      C3742   1.407       .  A
C3741      C3746   1.402       .  A
C3742      C3743   1.400       .  A
C3742      N3747   1.438       .  S
C3743      C3744   1.402       .  A
C3743      H3748   1.084       .  S
C3744      C3745   1.411       .  A
C3744      C3749   1.478       .  S
C3745      C3746   1.405       .  A
C3745      N3750   1.437       .  S
C3746      H3751   1.084       .  S
N3747      H3767   1.046       .  S
N3747      H3768   1.046       .  S
C3749      C3752   1.400       .  A
C3749      C3756   1.410       .  A
N3750      H3765   1.046       .  S
N3750      H3766   1.046       .  S
C3752      C3753   1.402       .  A
C3752      H3757   1.084       .  S
C3753      C3754   1.414       .  A
C3753      N3758   1.437       .  S
C3754      C3755   1.404       .  A
C3755      C3756   1.403       .  A
C3755      H3759   1.084       .  S
C3756      N3760   1.438       .  S
N3758      H3761   1.046       .  S
N3758      H3762   1.046       .  S
N3760      H3763   1.046       .  S
N3760      H3764   1.045       .  S
C3769      C3770   1.418       .  A
C3769      C3774   1.405       .  A
C3770      C3771   1.401       .  A
C3770      N3775   1.439       .  S
C3771      C3772   1.401       .  A
C3771      H3776   1.084       .  S
C3772      C3773   1.406       .  A
C3772      C3777   1.473       .  S
C3773      C3774   1.401       .  A
C3773      N3778   1.438       .  S
C3774      H3779   1.084       .  S
N3775      H3795   1.043       .  S
N3775      H3796   1.045       .  S
C3777      C3780   1.399       .  A
C3777      C3784   1.407       .  A
N3778      H3793   1.046       .  S
N3778      H3794   1.046       .  S
C3780      C3781   1.399       .  A
C3780      H3785   1.084       .  S
C3781      C3782   1.411       .  A
C3781      N3786   1.433       .  S
C3782      C3783   1.406       .  A
C3783      C3784   1.406       .  A
C3783      H3787   1.084       .  S
C3784      N3788   1.437       .  S
N3786      H3789   1.046       .  S
N3786      H3790   1.046       .  S
N3788      H3791   1.046       .  S
N3788      H3792   1.046       .  S
C3797      C3798   1.408       .  A
C3797      C3802   1.403       .  A
C3798      C3799   1.403       .  A
C3798      N3803   1.438       .  S
C3799      C3800   1.405       .  A
C3799      H3804   1.084       .  S
C3800      C3801   1.410       .  A
C3800      C3805   1.482       .  S
C3801      C3802   1.403       .  A
C3801      N3806   1.438       .  S
C3802      H3807   1.084       .  S
N3803      H3823   1.046       .  S
N3803      H3824   1.046       .  S
C3805      C3808   1.405       .  A
C3805      C3812   1.411       .  A
N3806      H3821   1.046       .  S
N3806      H3822   1.046       .  S
C3808      C3809   1.406       .  A
C3808      H3813   1.084       .  S
C3809      C3810   1.409       .  A
C3809      N3814   1.438       .  S
C3810      C3811   1.400       .  A
C3811      C3812   1.400       .  A
C3811      H3815   1.084       .  S
C3812      N3816   1.438       .  S
N3814      H3817   1.046       .  S
N3814      H3818   1.045       .  S
N3816      H3819   1.046       .  S
N3816      H3820   1.046       .  S
C3825      C3826   1.414       .  A
C3825      C3830   1.404       .  A
C3826      C3827   1.406       .  A
C3826      N3831   1.438       .  S
C3827      C3828   1.401       .  A
C3827      H3832   1.084       .  S
C3828      C3829   1.408       .  A
C3828      C3833   1.476       .  S
C3829      C3830   1.404       .  A
C3829      N3834   1.438       .  S
C3830      H3835   1.084       .  S
N3831      H3851   1.045       .  S
N3831      H3852   1.046       .  S
C3833      C3836   1.401       .  A
C3833      C3840   1.410       .  A
N3834      H3849   1.046       .  S
N3834      H3850   1.044       .  S
C3836      C3837   1.403       .  A
C3836      H3841   1.084       .  S
C3837      C3838   1.409       .  A
C3837      N3842   1.438       .  S
C3838      C3839   1.402       .  A
C3839      C3840   1.406       .  A
C3839      H3843   1.084       .  S
C3840      N3844   1.438       .  S
N3842      H3845   1.046       .  S
N3842      H3846   1.046       .  S
N3844      H3847   1.046       .  S
N3844      H3848   1.044       .  S
C3853      C3854   1.411       .  A
C3853      C3858   1.404       .  A
C3854      C3855   1.405       .  A
C3854      N3859   1.438       .  S
C3855      C3856   1.403       .  A
C3855      H3860   1.084       .  S
C3856      C3857   1.409       .  A
C3856      C3861   1.482       .  S
C3857      C3858   1.404       .  A
C3857      N3862   1.438       .  S
C3858      H3863   1.084       .  S
N3859      H3879   1.045       .  S
N3859      H3880   1.045       .  S
C3861      C3864   1.400       .  A
C3861      C3868   1.407       .  A
N3862      H3877   1.046       .  S
N3862      H3878   1.046       .  S
C3864      C3865   1.405       .  A
C3864      H3869   1.084       .  S
C3865      C3866   1.418       .  A
C3865      N3870   1.438       .  S
C3866      C3867   1.408       .  A
C3867      C3868   1.406       .  A
C3867      H3871   1.083       .  S
C3868      N3872   1.438       .  S
N3870      H3873   1.046       .  S
N3870      H3874   1.046       .  S
N3872      H3875   1.046       .  S
N3872      H3876   1.046       .  S
C3881      C3882   1.413       .  A
C3881      C3886   1.408       .  A
C3882      C3883   1.401       .  A
C3882      N3887   1.432       .  S
C3883      C3884   1.400       .  A
C3883      H3888   1.084       .  S
C3884      C3885   1.406       .  A
C3884      C3889   1.479       .  S
C3885      C3886   1.405       .  A
C3885      N3890   1.432       .  S
C3886      H3891   1.083       .  S
N3887      H3907   1.046       .  S
N3887      H3908   1.046       .  S
C3889      C3892   1.403       .  A
C3889      C3896   1.407       .  A
N3890      H3905   1.045       .  S
N3890      H3906   1.046       .  S
C3892      C3893   1.403       .  A
C3892      H3897   1.084       .  S
C3893      C3894   1.410       .  A
C3893      N3898   1.438       .  S
C3894      C3895   1.403       .  A
C3895      C3896   1.404       .  A
C3895      H3899   1.084       .  S
C3896      N3900   1.432       .  S
N3898      H3901   1.046       .  S
N3898      H3902   1.045       .  S
N3900      H3903   1.046       .  S
N3900      H3904   1.046       .  S
C3909      C3910   1.408       .  A
C3909      C3914   1.405       .  A
C3910      C3911   1.399       .  A
C3910      N3915   1.433       .  S
C3911      C3912   1.403       .  A
C3911      H3916   1.084       .  S
C3912      C3913   1.408       .  A
C3912      C3917   1.477       .  S
C3913      C3914   1.404       .  A
C3913      N3918   1.437       .  S
C3914      H3919   1.084       .  S
N3915      H3935   1.046       .  S
N3915      H3936   1.046       .  S
C3917      C3920   1.406       .  A
C3917      C3924   1.416       .  A
N3918      H3933   1.046       .  S
N3918      H3934   1.046       .  S
C3920      C3921   1.398       .  A
C3920      H3925   1.084       .  S
C3921      C3922   1.411       .  A
C3921      N3926   1.433       .  S
C3922      C3923   1.401       .  A
C3923      C3924   1.396       .  A
C3923      H3927   1.084       .  S
C3924      N3928   1.439       .  S
N3926      H3929   1.044       .  S
N3926      H3930   1.045       .  S
N3928      H3931   1.046       .  S
N3928      H3932   1.043       .  S
C3937      C3938   1.407       .  A
C3937      C3942   1.403       .  A
C3938      C3939   1.402       .  A
C3938      N3943   1.432       .  S
C3939      C3940   1.404       .  A
C3939      H3944   1.084       .  S
C3940      C3941   1.417       .  A
C3940      C3945   1.480       .  S
C3941      C3942   1.401       .  A
C3941      N3946   1.439       .  S
C3942      H3947   1.084       .  S
N3943      H3963   1.045       .  S
N3943      H3964   1.046       .  S
C3945      C3948   1.401       .  A
C3945      C3952   1.408       .  A
N3946      H3961   1.046       .  S
N3946      H3962   1.043       .  S
C3948      C3949   1.402       .  A
C3948      H3953   1.084       .  S
C3949      C3950   1.413       .  A
C3949      N3954   1.432       .  S
C3950      C3951   1.407       .  A
C3951      C3952   1.406       .  A
C3951      H3955   1.083       .  S
C3952      N3956   1.438       .  S
N3954      H3957   1.046       .  S
N3954      H3958   1.046       .  S
N3956      H3959   1.046       .  S
N3956      H3960   1.046       .  S
C3965      C3966   1.409       .  A
C3965      C3970   1.402       .  A
C3966      C3967   1.403       .  A
C3966      N3971   1.438       .  S
C3967      C3968   1.405       .  A
C3967      H3972   1.084       .  S
C3968      C3969   1.413       .  A
C3968      C3973   1.490       .  S
C3969      C3970   1.407       .  A
C3969      N3974   1.437       .  S
C3970      H3975   1.084       .  S
N3971      H3991   1.045       .  S
N3971      H3992   1.046       .  S
C3973      C3976   1.406       .  A
C3973      C3980   1.412       .  A
N3974      H3989   1.046       .  S
N3974      H3990   1.046       .  S
C3976      C3977   1.409       .  A
C3976      H3981   1.083       .  S
C3977      C3978   1.411       .  A
C3977      N3982   1.437       .  S
C3978      C3979   1.403       .  A
C3979      C3980   1.403       .  A
C3979      H3983   1.084       .  S
C3980      N3984   1.438       .  S
N3982      H3985   1.046       .  S
N3982      H3986   1.045       .  S
N3984      H3987   1.046       .  S
N3984      H3988   1.046       .  S
C3993      C3994   1.414       .  A
C3993      C3998   1.407       .  A
C3994      C3995   1.407       .  A
C3994      N3999   1.436       .  S
C3995      C3996   1.402       .  A
C3995      H4000   1.084       .  S
C3996      C3997   1.408       .  A
C3996      C4001   1.482       .  S
C3997      C3998   1.404       .  A
C3997      N4002   1.438       .  S
C3998      H4003   1.084       .  S
N3999      H4019   1.046       .  S
N3999      H4020   1.046       .  S
C4001      C4004   1.403       .  A
C4001      C4008   1.411       .  A
N4002      H4017   1.046       .  S
N4002      H4018   1.046       .  S
C4004      C4005   1.401       .  A
C4004      H4009   1.084       .  S
C4005      C4006   1.407       .  A
C4005      N4010   1.432       .  S
C4006      C4007   1.401       .  A
C4007      C4008   1.407       .  A
C4007      H4011   1.083       .  S
C4008      N4012   1.437       .  S
N4010      H4013   1.046       .  S
N4010      H4014   1.045       .  S
N4012      H4015   1.046       .  S
N4012      H4016   1.046       .  S
C4021      C4022   1.407       .  A
C4021      C4026   1.399       .  A
C4022      C4023   1.401       .  A
C4022      N4027   1.438       .  S
C4023      C4024   1.403       .  A
C4023      H4028   1.084       .  S
C4024      C4025   1.412       .  A
C4024      C4029   1.479       .  S
C4025      C4026   1.403       .  A
C4025      N4030   1.438       .  S
C4026      H4031   1.084       .  S
N4027      H4047   1.046       .  S
N4027      H4048   1.046       .  S
C4029      C4032   1.403       .  A
C4029      C4036   1.410       .  A
N4030      H4045   1.046       .  S
N4030      H4046   1.046       .  S
C4032      C4033   1.402       .  A
C4032      H4037   1.084       .  S
C4033      C4034   1.409       .  A
C4033      N4038   1.438       .  S
C4034      C4035   1.402       .  A
C4035      C4036   1.402       .  A
C4035      H4039   1.084       .  S
C4036      N4040   1.438       .  S
N4038      H4041   1.046       .  S
N4038      H4042   1.046       .  S
N4040      H4043   1.046       .  S
N4040      H4044   1.045       .  S
C4049      C4050   1.412       .  A
C4049      C4054   1.402       .  A
C4050      C4051   1.403       .  A
C4050      N4055   1.438       .  S
C4051      C4052   1.400       .  A
C4051      H4056   1.084       .  S
C4052      C4053   1.409       .  A
C4052      C4057   1.474       .  S
C4053      C4054   1.404       .  A
C4053      N4058   1.438       .  S
C4054      H4059   1.084       .  S
N4055      H4075   1.046       .  S
N4055      H4076   1.046       .  S
C4057      C4060   1.401       .  A
C4057      C4064   1.408       .  A
N4058      H4073   1.046       .  S
N4058      H4074   1.045       .  S
C4060      C4061   1.403       .  A
C4060      H4065   1.084       .  S
C4061      C4062   1.409       .  A
C4061      N4066   1.438       .  S
C4062      C4063   1.404       .  A
C4063      C4064   1.406       .  A
C4063      H4067   1.084       .  S
C4064      N4068   1.438       .  S
N4066      H4069   1.046       .  S
N4066      H4070   1.046       .  S
N4068      H4071   1.046       .  S
N4068      H4072   1.045       .  S
C4077      C4078   1.412       .  A
C4077      C4082   1.402       .  A
C4078      C4079   1.397       .  A
C4078      N4083   1.433       .  S
C4079      C4080   1.406       .  A
C4079      H4084   1.084       .  S
C4080      C4081   1.411       .  A
C4080      C4085   1.488       .  S
C4081      C4082   1.405       .  A
C4081      N4086   1.432       .  S
C4082      H4087   1.084       .  S
N4083      H4103   1.044       .  S
N4083      H4104   1.046       .  S
C4085      C4088   1.403       .  A
C4085      C4092   1.408       .  A
N4086      H4101   1.046       .  S
N4086      H4102   1.045       .  S
C4088      C4089   1.405       .  A
C4088      H4093   1.083       .  S
C4089      C4090   1.416       .  A
C4089      N4094   1.431       .  S
C4090      C4091   1.408       .  A
C4091      C4092   1.401       .  A
C4091      H4095   1.083       .  S
C4092      N4096   1.433       .  S
N4094      H4097   1.046       .  S
N4094      H4098   1.046       .  S
N4096      H4099   1.046       .  S
N4096      H4100   1.045       .  S
C4105      C4106   1.407       .  A
C4105      C4110   1.400       .  A
C4106      C4107   1.401       .  A
C4106      N4111   1.433       .  S
C4107      C4108   1.406       .  A
C4107      H4112   1.083       .  S
C4108      C4109   1.417       .  A
C4108      C4113   1.492       .  S
C4109      C4110   1.405       .  A
C4109      N4114   1.438       .  S
C4110      H4115   1.084       .  S
N4111      H4131   1.045       .  S
N4111      H4132   1.046       .  S
C4113      C4116   1.403       .  A
C4113      C4120   1.415       .  A
N4114      H4129   1.046       .  S
N4114      H4130   1.045       .  S
C4116      C4117   1.398       .  A
C4116      H4121   1.084       .  S
C4117      C4118   1.410       .  A
C4117      N4122   1.431       .  S
C4118      C4119   1.406       .  A
C4119      C4120   1.408       .  A
C4119      H4123   1.084       .  S
C4120      N4124   1.438       .  S
N4122      H4125   1.045       .  S
N4122      H4126   1.046       .  S
N4124      H4127   1.046       .  S
N4124      H4128   1.045       .  S
C4133      C4134   1.409       .  A
C4133      C4138   1.399       .  A
C4134      C4135   1.400       .  A
C4134      N4139   1.438       .  S
C4135      C4136   1.402       .  A
C4135      H4140   1.084       .  S
C4136      C4137   1.410       .  A
C4136      C4141   1.475       .  S
C4137      C4138   1.402       .  A
C4137      N4142   1.437       .  S
C4138      H4143   1.084       .  S
N4139      H4159   1.045       .  S
N4139      H4160   1.046       .  S
C4141      C4144   1.402       .  A
C4141      C4148   1.408       .  A
N4142      H4157   1.046       .  S
N4142      H4158   1.045       .  S
C4144      C4145   1.401       .  A
C4144      H4149   1.084       .  S
C4145      C4146   1.411       .  A
C4145      N4150   1.438       .  S
C4146      C4147   1.404       .  A
C4147      C4148   1.402       .  A
C4147      H4151   1.084       .  S
C4148      N4152   1.438       .  S
N4150      H4153   1.046       .  S
N4150      H4154   1.046       .  S
N4152      H4155   1.046       .  S
N4152      H4156   1.046       .  S
C4161      C4162   1.407       .  A
C4161      C4166   1.400       .  A
C4162      C4163   1.398       .  A
C4162      N4167   1.438       .  S
C4163      C4164   1.402       .  A
C4163      H4168   1.084       .  S
C4164      C4165   1.412       .  A
C4164      C4169   1.478       .  S
C4165      C4166   1.404       .  A
C4165      N4170   1.437       .  S
C4166      H4171   1.084       .  S
N4167      H4187   1.046       .  S
N4167      H4188   1.045       .  S
C4169      C4172   1.400       .  A
C4169      C4176   1.410       .  A
N4170      H4185   1.046       .  S
N4170      H4186   1.045       .  S
C4172      C4173   1.403       .  A
C4172      H4177   1.084       .  S
C4173      C4174   1.416       .  A
C4173      N4178   1.438       .  S
C4174      C4175   1.404       .  A
C4175      C4176   1.402       .  A
C4175      H4179   1.084       .  S
C4176      N4180   1.438       .  S
N4178      H4181   1.046       .  S
N4178      H4182   1.046       .  S
N4180      H4183   1.046       .  S
N4180      H4184   1.046       .  S
C4189      C4190   1.411       .  A
C4189      C4194   1.402       .  A
C4190      C4191   1.395       .  A
C4190      N4195   1.433       .  S
C4191      C4192   1.403       .  A
C4191      H4196   1.084       .  S
C4192      C4193   1.413       .  A
C4192      C4197   1.485       .  S
C4193      C4194   1.409       .  A
C4193      N4198   1.437       .  S
C4194      H4199   1.084       .  S
N4195      H4215   1.045       .  S
N4195      H4216   1.045       .  S
C4197      C4200   1.403       .  A
C4197      C4204   1.412       .  A
N4198      H4213   1.046       .  S
N4198      H4214   1.046       .  S
C4200      C4201   1.403       .  A
C4200      H4205   1.084       .  S
C4201      C4202   1.409       .  A
C4201      N4206   1.432       .  S
C4202      C4203   1.402       .  A
C4203      C4204   1.405       .  A
C4203      H4207   1.084       .  S
C4204      N4208   1.438       .  S
N4206      H4209   1.046       .  S
N4206      H4210   1.045       .  S
N4208      H4211   1.046       .  S
N4208      H4212   1.046       .  S
C4217      C4218   1.412       .  A
C4217      C4222   1.401       .  A
C4218      C4219   1.401       .  A
C4218      N4223   1.432       .  S
C4219      C4220   1.405       .  A
C4219      H4224   1.083       .  S
C4220      C4221   1.414       .  A
C4220      C4225   1.489       .  S
C4221      C4222   1.405       .  A
C4221      N4226   1.438       .  S
C4222      H4227   1.084       .  S
N4223      H4243   1.046       .  S
N4223      H4244   1.044       .  S
C4225      C4228   1.402       .  A
C4225      C4232   1.411       .  A
N4226      H4241   1.046       .  S
N4226      H4242   1.046       .  S
C4228      C4229   1.404       .  A
C4228      H4233   1.084       .  S
C4229      C4230   1.418       .  A
C4229      N4234   1.438       .  S
C4230      C4231   1.408       .  A
C4231      C4232   1.409       .  A
C4231      H4235   1.083       .  S
C4232      N4236   1.437       .  S
N4234      H4237   1.046       .  S
N4234      H4238   1.046       .  S
N4236      H4239   1.046       .  S
N4236      H4240   1.045       .  S
C4245      C4246   1.411       .  A
C4245      C4250   1.401       .  A
C4246      C4247   1.400       .  A
C4246      N4251   1.432       .  S
C4247      C4248   1.405       .  A
C4247      H4252   1.084       .  S
C4248      C4249   1.412       .  A
C4248      C4253   1.483       .  S
C4249      C4250   1.401       .  A
C4249      N4254   1.438       .  S
C4250      H4255   1.084       .  S
N4251      H4271   1.046       .  S
N4251      H4272   1.045       .  S
C4253      C4256   1.403       .  A
C4253      C4260   1.409       .  A
N4254      H4269   1.045       .  S
N4254      H4270   1.046       .  S
C4256      C4257   1.408       .  A
C4256      H4261   1.084       .  S
C4257      C4258   1.414       .  A
C4257      N4262   1.438       .  S
C4258      C4259   1.405       .  A
C4259      C4260   1.402       .  A
C4259      H4263   1.083       .  S
C4260      N4264   1.438       .  S
N4262      H4265   1.046       .  S
N4262      H4266   1.046       .  S
N4264      H4267   1.046       .  S
N4264      H4268   1.045       .  S
C4273      C4274   1.414       .  A
C4273      C4278   1.403       .  A
C4274      C4275   1.396       .  A
C4274      N4279   1.433       .  S
C4275      C4276   1.400       .  A
C4275      H4280   1.084       .  S
C4276      C4277   1.406       .  A
C4276      C4281   1.473       .  S
C4277      C4278   1.401       .  A
C4277      N4282   1.432       .  S
C4278      H4283   1.084       .  S
N4279      H4299   1.045       .  S
N4279      H4300   1.044       .  S
C4281      C4284   1.400       .  A
C4281      C4288   1.404       .  A
N4282      H4297   1.046       .  S
N4282      H4298   1.045       .  S
C4284      C4285   1.405       .  A
C4284      H4289   1.084       .  S
C4285      C4286   1.416       .  A
C4285      N4290   1.438       .  S
C4286      C4287   1.403       .  A
C4287      C4288   1.400       .  A
C4287      H4291   1.084       .  S
C4288      N4292   1.432       .  S
N4290      H4293   1.046       .  S
N4290      H4294   1.046       .  S
N4292      H4295   1.045       .  S
N4292      H4296   1.045       .  S
C4301      C4302   1.409       .  A
C4301      C4306   1.401       .  A
C4302      C4303   1.403       .  A
C4302      N4307   1.438       .  S
C4303      C4304   1.403       .  A
C4303      H4308   1.084       .  S
C4304      C4305   1.414       .  A
C4304      C4309   1.486       .  S
C4305      C4306   1.408       .  A
C4305      N4310   1.438       .  S
C4306      H4311   1.083       .  S
N4307      H4327   1.046       .  S
N4307      H4328   1.046       .  S
C4309      C4312   1.402       .  A
C4309      C4316   1.412       .  A
N4310      H4325   1.046       .  S
N4310      H4326   1.046       .  S
C4312      C4313   1.405       .  A
C4312      H4317   1.084       .  S
C4313      C4314   1.414       .  A
C4313      N4318   1.437       .  S
C4314      C4315   1.403       .  A
C4315      C4316   1.405       .  A
C4315      H4319   1.084       .  S
C4316      N4320   1.438       .  S
N4318      H4321   1.046       .  S
N4318      H4322   1.046       .  S
N4320      H4323   1.046       .  S
N4320      H4324   1.046       .  S
C4329      C4330   1.411       .  A
C4329      C4334   1.402       .  A
C4330      C4331   1.405       .  A
C4330      N4335   1.437       .  S
C4331      C4332   1.403       .  A
C4331      H4336   1.084       .  S
C4332      C4333   1.409       .  A
C4332      C4337   1.477       .  S
C4333      C4334   1.399       .  A
C4333      N4338   1.438       .  S
C4334      H4339   1.084       .  S
N4335      H4355   1.045       .  S
N4335      H4356   1.046       .  S
C4337      C4340   1.401       .  A
C4337      C4344   1.406       .  A
N4338      H4353   1.046       .  S
N4338      H4354   1.046       .  S
C4340      C4341   1.401       .  A
C4340      H4345   1.084       .  S
C4341      C4342   1.416       .  A
C4341      N4346   1.438       .  S
C4342      C4343   1.409       .  A
C4343      C4344   1.404       .  A
C4343      H4347   1.083       .  S
C4344      N4348   1.438       .  S
N4346      H4349   1.046       .  S
N4346      H4350   1.046       .  S
N4348      H4351   1.046       .  S
N4348      H4352   1.046       .  S
C4357      C4358   1.413       .  A
C4357      C4362   1.403       .  A
C4358      C4359   1.404       .  A
C4358      N4363   1.438       .  S
C4359      C4360   1.400       .  A
C4359      H4364   1.084       .  S
C4360      C4361   1.410       .  A
C4360      C4365   1.477       .  S
C4361      C4362   1.407       .  A
C4361      N4366   1.438       .  S
C4362      H4367   1.083       .  S
N4363      H4383   1.046       .  S
N4363      H4384   1.046       .  S
C4365      C4368   1.399       .  A
C4365      C4372   1.409       .  A
N4366      H4381   1.046       .  S
N4366      H4382   1.044       .  S
C4368      C4369   1.403       .  A
C4368      H4373   1.084       .  S
C4369      C4370   1.415       .  A
C4369      N4374   1.438       .  S
C4370      C4371   1.405       .  A
C4371      C4372   1.407       .  A
C4371      H4375   1.084       .  S
C4372      N4376   1.438       .  S
N4374      H4377   1.046       .  S
N4374      H4378   1.046       .  S
N4376      H4379   1.046       .  S
N4376      H4380   1.044       .  S
C4385      C4386   1.409       .  A
C4385      C4390   1.403       .  A
C4386      C4387   1.402       .  A
C4386      N4391   1.438       .  S
C4387      C4388   1.403       .  A
C4387      H4392   1.084       .  S
C4388      C4389   1.410       .  A
C4388      C4393   1.482       .  S
C4389      C4390   1.407       .  A
C4389      N4394   1.437       .  S
C4390      H4395   1.084       .  S
N4391      H4411   1.045       .  S
N4391      H4412   1.046       .  S
C4393      C4396   1.403       .  A
C4393      C4400   1.409       .  A
N4394      H4409   1.046       .  S
N4394      H4410   1.046       .  S
C4396      C4397   1.408       .  A
C4396      H4401   1.084       .  S
C4397      C4398   1.412       .  A
C4397      N4402   1.438       .  S
C4398      C4399   1.402       .  A
C4399      C4400   1.402       .  A
C4399      H4403   1.084       .  S
C4400      N4404   1.438       .  S
N4402      H4405   1.046       .  S
N4402      H4406   1.046       .  S
N4404      H4407   1.046       .  S
N4404      H4408   1.046       .  S
C4413      C4414   1.418       .  A
C4413      C4418   1.407       .  A
C4414      C4415   1.406       .  A
C4414      N4419   1.437       .  S
C4415      C4416   1.400       .  A
C4415      H4420   1.084       .  S
C4416      C4417   1.408       .  A
C4416      C4421   1.482       .  S
C4417      C4418   1.406       .  A
C4417      N4422   1.437       .  S
C4418      H4423   1.083       .  S
N4419      H4439   1.046       .  S
N4419      H4440   1.046       .  S
C4421      C4424   1.402       .  A
C4421      C4428   1.408       .  A
N4422      H4437   1.046       .  S
N4422      H4438   1.046       .  S
C4424      C4425   1.402       .  A
C4424      H4429   1.084       .  S
C4425      C4426   1.418       .  A
C4425      N4430   1.438       .  S
C4426      C4427   1.405       .  A
C4427      C4428   1.404       .  A
C4427      H4431   1.084       .  S
C4428      N4432   1.438       .  S
N4430      H4433   1.046       .  S
N4430      H4434   1.043       .  S
N4432      H4435   1.046       .  S
N4432      H4436   1.046       .  S
