geometry optimzed in LAMMPS
_audit_creation_date              2020-11-30 
_audit_creation_method            'lammps2cif' 
_symmetry_space_group_name_H-M    'P1' 
_symmetry_Int_Tables_number       1 
_symmetry_cell_setting            triclinic 
loop_ 
_symmetry_equiv_pos_as_xyz 
  x,y,z 
_cell_length_a                    32.621413011014646 
_cell_length_b                    53.592068357558276 
_cell_length_c                    47.9557245020264 
_cell_angle_alpha                 90.02396970116473 
_cell_angle_beta                  89.99258395853752 
_cell_angle_gamma                 90.03828623492487 
loop_ 
_atom_site_label 
_atom_site_type_symbol 
_atom_site_fract_x 
_atom_site_fract_y 
_atom_site_fract_z 
_atom_site_charge 
N1          N  0.81713618  0.10026395  0.09093982    -0.26020
N2          N  0.80078885  0.07880190  0.09886629    -0.33880
C3          C  0.82211321  0.05996680  0.08729385     0.02320
C4          C  0.85318187  0.07017347  0.07144343     0.08340
C5          C  0.84926732  0.09567238  0.07413539    -0.04750
H6          H  0.81531694  0.04035125  0.09011224     0.09010
H7          H  0.86816781  0.10986705  0.06450522     0.10210
Cu8        Cu  0.74993330  0.07611608  0.12469037     0.44170
Cu9        Cu  0.79495737  0.13488106  0.10286858     0.41990
Cu10       Cu  0.70636029  0.13487592  0.14783081     0.43880
N11         N  0.69857315  0.07880812  0.15004358    -0.33410
N12         N  0.68276290  0.10026881  0.15844040    -0.27660
C13         C  0.64946794  0.09569239  0.17416685    -0.03760
C14         C  0.64423808  0.07020441  0.17567144     0.08450
C15         C  0.67572169  0.05998514  0.16022721     0.02250
H16         H  0.63038384  0.10989230  0.18359995     0.09900
H17         H  0.68147403  0.04037468  0.15647248     0.08980
N18         N  0.73467666  0.16711819  0.13381344    -0.34860
N19         N  0.76699753  0.16712199  0.11722999    -0.27040
C20         C  0.77758410  0.19083229  0.11159013    -0.02280
C21         C  0.75062468  0.20663678  0.12533222     0.06330
C22         C  0.72384989  0.19082438  0.13923988     0.04430
H23         H  0.80321347  0.19604340  0.09853300     0.09530
H24         H  0.69796888  0.19602627  0.15206559     0.08370
O25         O  0.94994413  0.04375393  0.50142086    -0.71670
O26         O  0.03311014  0.00848259  0.45388188    -0.72660
O27         O  0.94615025  0.00856022  0.45726893    -0.61270
O28         O  0.03689500  0.04369441  0.49801968    -0.69690
O29         O  0.03940150  0.01273787  0.02881334    -0.69240
O30         O  0.94863048  0.97759404  0.48805198    -0.60490
O31         O  0.03558015  0.97752403  0.48467259    -0.73000
O32         O  0.95242640  0.01279076  0.03220567    -0.71780
Cu33       Cu  0.99143709  0.02721790  0.47656396     1.04560
Cu34       Cu  0.99409776  0.99406744  0.00952252     1.04330
C35         C  0.93813877  0.03376687  0.02421141     0.94520
C36         C  0.04738057  0.98750048  0.46187652     0.93660
C37         C  0.93316783  0.98760350  0.46632026     0.85810
C38         C  0.05238018  0.03369230  0.01974575     0.92080
N39         N  0.31765948  0.10047849  0.14467796    -0.26020
N40         N  0.30098362  0.07901172  0.13706977    -0.33880
C41         C  0.32202766  0.06020019  0.14889765     0.02320
C42         C  0.35324461  0.07042194  0.16459721     0.08340
C43         C  0.34971406  0.09590895  0.16154988    -0.04750
H44         H  0.31495082  0.04059005  0.14634308     0.09010
H45         H  0.36884155  0.11011090  0.17096732     0.10210
Cu46       Cu  0.25005677  0.07625613  0.11134525     0.44170
Cu47       Cu  0.29599348  0.13507965  0.13225884     0.41990
Cu48       Cu  0.20551029  0.13493002  0.08903212     0.43880
N49         N  0.19858622  0.07884770  0.08611456    -0.33410
N50         N  0.18240532  0.10028507  0.07800145    -0.27660
C51         C  0.14914859  0.09564240  0.06225958    -0.03760
C52         C  0.14431848  0.07013515  0.06047225     0.08450
C53         C  0.17600745  0.05997595  0.07575263     0.02250
H54         H  0.12979480  0.10980648  0.05303323     0.09900
H55         H  0.18206521  0.04037101  0.07929489     0.08980
N56         N  0.23413193  0.16721917  0.10269022    -0.34860
N57         N  0.26765505  0.16728496  0.11814309    -0.27040
C58         C  0.27871920  0.19102509  0.12324248    -0.02280
C59         C  0.25063057  0.20672703  0.11051590     0.06330
C60         C  0.22276821  0.19090812  0.09769847     0.04430
H61         H  0.30488630  0.19637657  0.13573869     0.09530
H62         H  0.19634699  0.19614450  0.08540903     0.08370
N63         N  0.66823609  0.92121474  0.34078205    -0.26020
N64         N  0.68482373  0.94267084  0.34851817    -0.33880
C65         C  0.66363697  0.96150546  0.33685075     0.02320
C66         C  0.63241726  0.95130553  0.32113168     0.08340
C67         C  0.63609712  0.92581237  0.32399796    -0.04750
H68         H  0.67059968  0.98111606  0.33954292     0.09010
H69         H  0.61699742  0.91162430  0.31452868     0.10210
Cu70       Cu  0.73575616  0.94537804  0.37425892     0.44170
Cu71       Cu  0.69003179  0.88658052  0.35295011     0.41990
Cu72       Cu  0.77980180  0.88664277  0.39680018     0.43880
N73         N  0.78714402  0.94270075  0.39957028    -0.33410
N74         N  0.80313727  0.92123350  0.40775531    -0.27660
C75         C  0.83635418  0.92580450  0.42355847    -0.03760
C76         C  0.84134931  0.95129825  0.42532482     0.08450
C77         C  0.80980477  0.96152503  0.40995909     0.02250
H78         H  0.85554222  0.91159963  0.43286733     0.09900
H79         H  0.80387885  0.98114237  0.40640085     0.08980
N80         N  0.75128062  0.85438955  0.38299107    -0.34860
N81         N  0.71816903  0.85434632  0.36714472    -0.27040
C82         C  0.70725045  0.83061586  0.36186308    -0.02280
C83         C  0.73495749  0.81487093  0.37494331     0.06330
C84         C  0.76245688  0.83069970  0.38813581     0.04430
H85         H  0.68139249  0.82532698  0.34904688     0.09530
H86         H  0.78856097  0.82549859  0.40074609     0.08370
O87         O  0.53542866  0.97770582  0.25130684    -0.71670
O88         O  0.45223926  0.01300017  0.20388121    -0.72660
O89         O  0.53919255  0.01295433  0.20726489    -0.61270
O90         O  0.44845914  0.97772305  0.24791857    -0.69690
O91         O  0.44590112  0.00863011  0.27879971    -0.69240
O92         O  0.53666861  0.04387492  0.23813293    -0.60490
O93         O  0.44971925  0.04391467  0.23475590    -0.73000
O94         O  0.53290291  0.00862204  0.28217918    -0.71780
Cu95       Cu  0.49391600  0.99425236  0.22650745     1.04560
Cu96       Cu  0.49120511  0.02735313  0.25955811     1.04330
C97         C  0.54724248  0.98767523  0.27411131     0.94520
C98         C  0.43794620  0.03396493  0.21193201     0.93660
C99         C  0.55216253  0.03389736  0.21638060     0.85810
C100        C  0.43294123  0.98768538  0.26966942     0.92080
N101        N  0.30308767  0.92102840  0.32805446    -0.26020
N102        N  0.28667579  0.94247541  0.33594181    -0.33880
C103        C  0.30911846  0.96134219  0.32544413     0.02320
C104        C  0.34095404  0.95117581  0.31029490     0.08340
C105        C  0.33634662  0.92566390  0.31230446    -0.04750
H106        H  0.30288928  0.98095286  0.32882670     0.09010
H107        H  0.35588488  0.91149490  0.30325338     0.10210
Cu108      Cu  0.23510303  0.94509533  0.36108694     0.44170
Cu109      Cu  0.28030465  0.88638868  0.33945903     0.41990
Cu110      Cu  0.18854093  0.88631311  0.38148237     0.43880
N111        N  0.18412895  0.94237935  0.38678296    -0.33410
N112        N  0.16724671  0.92093071  0.39422803    -0.27660
C113        C  0.13526506  0.92552606  0.41116883    -0.03760
C114        C  0.13197773  0.95101084  0.41441313     0.08450
C115        C  0.16327495  0.96120269  0.39876630     0.02250
H116        H  0.11599991  0.91134367  0.42048107     0.09900
H117        H  0.17052723  0.98080107  0.39634527     0.08980
N118        N  0.21713637  0.85407444  0.36762747    -0.34860
N119        N  0.25145356  0.85411499  0.35297522    -0.27040
C120        C  0.26319225  0.83041257  0.34842259    -0.02280
C121        C  0.23463242  0.81467099  0.36054708     0.06330
C122        C  0.20578586  0.83033544  0.37246388     0.04430
H123        H  0.29027536  0.82506785  0.33686089     0.09530
H124        H  0.17901178  0.82491842  0.38432260     0.08370
N125        N  0.80652041  0.60053956  0.40511783    -0.26020
N126        N  0.79063009  0.57905439  0.39683415    -0.33880
C127        C  0.81305620  0.56024953  0.40743066     0.02320
C128        C  0.84434461  0.57050405  0.42303437     0.08340
C129        C  0.83944254  0.59599510  0.42119906    -0.04750
H130        H  0.80705427  0.54062248  0.40393670     0.09010
H131        H  0.85840614  0.61021433  0.43073674     0.10210
Cu132      Cu  0.73944644  0.57628328  0.37137227     0.44170
Cu133      Cu  0.78318052  0.63511394  0.39418232     0.41990
Cu134      Cu  0.69338178  0.63495725  0.35036534     0.43880
N135        N  0.68832977  0.57888190  0.34583356    -0.33410
N136        N  0.67160891  0.60030708  0.33819928    -0.27660
C137        C  0.63916554  0.59565199  0.32170034    -0.03760
C138        C  0.63544041  0.57015154  0.31891578     0.08450
C139        C  0.66693336  0.56000494  0.33438620     0.02250
H140        H  0.61980764  0.60980123  0.31245011     0.09900
H141        H  0.67385196  0.54040377  0.33713731     0.08980
N142        N  0.72104550  0.66724133  0.36489357    -0.34860
N143        N  0.75416839  0.66729972  0.38072836    -0.27040
C144        C  0.76474264  0.69102466  0.38632604    -0.02280
C145        C  0.73681269  0.70675950  0.37345813     0.06330
C146        C  0.70951703  0.69092709  0.36007149     0.04430
H147        H  0.79063579  0.69630946  0.39911034     0.09530
H148        H  0.68342881  0.69613059  0.34744650     0.08370
N149        N  0.81357660  0.42124081  0.08797983    -0.26020
N150        N  0.79708830  0.44268717  0.09579421    -0.33880
C151        C  0.81863765  0.46154440  0.08445323     0.02320
C152        C  0.84999712  0.45136430  0.06886936     0.08340
C153        C  0.84603338  0.42586292  0.07147841    -0.04750
H154        H  0.81189646  0.48115565  0.08733804     0.09010
H155        H  0.86521869  0.41169089  0.06208931     0.10290
Cu156      Cu  0.74605540  0.44533351  0.12141442     0.44170
Cu157      Cu  0.79145697  0.38661186  0.09991562     0.41990
Cu158      Cu  0.70288200  0.38654225  0.14486094     0.43880
N159        N  0.69493953  0.44259627  0.14694864    -0.33410
N160        N  0.67926394  0.42112820  0.15545658    -0.27660
C161        C  0.64630195  0.42569093  0.17149904    -0.03760
C162        C  0.64115756  0.45117575  0.17308441     0.08450
C163        C  0.67233833  0.46141060  0.15737063     0.02250
H164        H  0.62748499  0.41148696  0.18118733     0.09900
H165        H  0.67815424  0.48102819  0.15368935     0.08980
N166        N  0.73166770  0.35433252  0.13125625    -0.34860
N167        N  0.76398914  0.35435465  0.11467492    -0.27040
C168        C  0.77518501  0.33065837  0.10956119    -0.02280
C169        C  0.74864377  0.31483709  0.12366595     0.06330
C170        C  0.72144722  0.33062429  0.13720900     0.04430
H171        H  0.80104626  0.32547360  0.09671052     0.09530
H172        H  0.69579492  0.32539784  0.15023934     0.08370
N173        N  0.30697273  0.60062120  0.33172341    -0.26020
N174        N  0.29070011  0.57918443  0.33980485    -0.33880
C175        C  0.31284112  0.56029915  0.32909197     0.02320
C176        C  0.34433773  0.57043825  0.31359988     0.08340
C177        C  0.33984904  0.59595447  0.31562367    -0.04750
H178        H  0.30652401  0.54069218  0.33245325     0.09010
H179        H  0.35909832  0.61010446  0.30623541     0.10210
Cu180      Cu  0.23940791  0.57654655  0.36516498     0.44170
Cu181      Cu  0.28419836  0.63529107  0.34301053     0.41990
Cu182      Cu  0.19243647  0.63525594  0.38501420     0.43880
N183        N  0.18821629  0.57923511  0.39060951    -0.33410
N184        N  0.17117236  0.60067730  0.39786331    -0.27660
C185        C  0.13880235  0.59608170  0.41445588    -0.03760
C186        C  0.13544543  0.57060103  0.41766936     0.08450
C187        C  0.16708815  0.56040844  0.40236829     0.02250
H188        H  0.11920921  0.61025367  0.42344480     0.09900
H189        H  0.17427140  0.54080743  0.39992389     0.08980
N190        N  0.22046344  0.66749854  0.37066858    -0.34860
N191        N  0.25478481  0.66753725  0.35602210    -0.27040
C192        C  0.26582377  0.69127076  0.35085099    -0.02280
C193        C  0.23677769  0.70693044  0.36254978     0.06330
C194        C  0.20840885  0.69119334  0.37488405     0.04430
H195        H  0.29264794  0.69668210  0.33904260     0.09530
H196        H  0.18136749  0.69654284  0.38648884     0.08370
O197        O  0.94902517  0.54406972  0.48760242    -0.71670
O198        O  0.03789490  0.50875478  0.02994396    -0.72660
O199        O  0.03605655  0.54406149  0.48591074    -0.61270
O200        O  0.95083509  0.50877733  0.03166176    -0.69690
O201        O  0.94948816  0.47788856  0.50071590    -0.69240
O202        O  0.03472565  0.51317801  0.45495774    -0.60490
O203        O  0.03651820  0.47787451  0.49898805    -0.73000
O204        O  0.94768328  0.51317682  0.45666134    -0.71780
Cu205      Cu  0.99349850  0.52750865  0.00987256     1.04560
Cu206      Cu  0.99205385  0.49443663  0.47674056     1.04330
C207        C  0.93443126  0.53412385  0.46554305     0.94520
C208        C  0.05114937  0.48781404  0.02103627     0.93660
C209        C  0.04876160  0.53411911  0.46332131     0.85810
C210        C  0.93679549  0.48783568  0.02330812     0.92080
O211        O  0.44746023  0.51280694  0.27998699    -0.71670
O212        O  0.53631309  0.47753128  0.23754345    -0.72660
O213        O  0.53452117  0.51275525  0.28168891    -0.61270
O214        O  0.44929859  0.47754862  0.23583447    -0.69690
O215        O  0.45067133  0.50848134  0.20497235    -0.69240
O216        O  0.53588747  0.54368545  0.25082303    -0.60490
O217        O  0.53768369  0.50846968  0.20668676    -0.73000
O218        O  0.44886800  0.54372959  0.24911408    -0.71780
Cu219      Cu  0.49184443  0.49406527  0.25985494     1.04560
Cu220      Cu  0.49332100  0.52718517  0.22681336     1.04330
C221        C  0.43424811  0.53377515  0.27115065     0.94520
C222        C  0.55092502  0.48751093  0.21551611     0.93660
C223        C  0.54858534  0.53369993  0.27337984     0.85810
C224        C  0.43665025  0.48751751  0.21325527     0.92080
N225        N  0.17924507  0.42109943  0.08084857    -0.26020
N226        N  0.19533397  0.44253644  0.08911442    -0.33880
C227        C  0.17296226  0.46141223  0.07862381     0.02320
C228        C  0.14150022  0.45126034  0.06310211     0.08340
C229        C  0.14624967  0.42575211  0.06487247    -0.04750
H230        H  0.17908616  0.48101849  0.08216719     0.09010
H231        H  0.12709454  0.41159470  0.05539795     0.10210
Cu232      Cu  0.24661575  0.44517286  0.11449330     0.44170
Cu233      Cu  0.20233814  0.38643847  0.09175482     0.41990
Cu234      Cu  0.29281907  0.38642752  0.13496378     0.43880
N235        N  0.29768620  0.44246305  0.14005057    -0.33410
N236        N  0.31446692  0.42100510  0.14750381    -0.27660
C237        C  0.34677940  0.42558117  0.16415170    -0.03760
C238        C  0.35035580  0.45106622  0.16721613     0.08450
C239        C  0.31891420  0.46128223  0.15175612     0.02250
H240        H  0.36612623  0.41138982  0.17333185     0.09900
H241        H  0.31189055  0.48089175  0.14920998     0.08980
N242        N  0.26493619  0.35420049  0.12045582    -0.34860
N243        N  0.23140936  0.35418660  0.10500757    -0.27040
C244        C  0.22061448  0.33046798  0.09953746    -0.02280
C245        C  0.24887767  0.31472700  0.11202245     0.06330
C246        C  0.27657273  0.33049994  0.12507515     0.04430
H247        H  0.19439643  0.32516351  0.08706642     0.09530
H248        H  0.30294999  0.32521773  0.13738408     0.08370
C249        C  0.38059573  0.46419131  0.18330370    -0.12000
C250        C  0.40615426  0.47493642  0.19692304    -0.13560
C251        C  0.08307978  0.47523427  0.03601144    -0.12000
C252        C  0.10986766  0.46445596  0.04842210    -0.13560
C253        C  0.10507157  0.55745295  0.43361047    -0.12000
C254        C  0.07937679  0.54669624  0.44709424    -0.13560
C255        C  0.37577826  0.55721211  0.29873959    -0.12000
C256        C  0.40242005  0.54638784  0.28621525    -0.13560
C257        C  0.60955305  0.46427129  0.18790588    -0.12000
C258        C  0.58280667  0.47496582  0.20045368    -0.13560
C259        C  0.90618685  0.47526895  0.03955179    -0.12000
C260        C  0.88046771  0.46452646  0.05302848    -0.13560
C261        C  0.87587421  0.55741291  0.43792842    -0.12000
C262        C  0.90257306  0.54669959  0.45049527    -0.13560
C263        C  0.60498448  0.55696449  0.30308522    -0.12000
C264        C  0.57923629  0.54622768  0.28962579    -0.13560
C265        C  0.19830018  0.77355583  0.36139963    -0.12080
C266        C  0.23515152  0.78710691  0.36101263     0.10070
C267        C  0.27252834  0.77412534  0.36113616    -0.12080
C268        C  0.27305119  0.74804527  0.36163257    -0.12080
C269        C  0.23620586  0.73449182  0.36201574     0.10070
C270        C  0.19882322  0.74746999  0.36189581    -0.12080
H271        H  0.16908421  0.78312355  0.36098613     0.14060
H272        H  0.30136303  0.78414353  0.36120800     0.14060
H273        H  0.30227248  0.73848515  0.36206892     0.14060
H274        H  0.16999388  0.73744433  0.36184662     0.14060
C275        C  0.37307222  0.96435890  0.29602867    -0.12000
C276        C  0.40035191  0.97512248  0.28405840    -0.13560
C277        C  0.77102304  0.77401044  0.38189994    -0.12080
C278        C  0.73537300  0.78720112  0.37463821     0.10070
C279        C  0.70017314  0.77369459  0.36701844    -0.12080
C280        C  0.70062774  0.74761381  0.36664797    -0.12080
C281        C  0.73629252  0.73442668  0.37388854     0.10070
C282        C  0.77147781  0.74793571  0.38152893    -0.12080
H283        H  0.79884534  0.78377835  0.38754747     0.14060
H284        H  0.67203882  0.78321441  0.36162082     0.14060
H285        H  0.67282160  0.73783604  0.36098123     0.14060
H286        H  0.79962877  0.73842657  0.38690712     0.14060
C287        C  0.60246781  0.96443408  0.30481505    -0.12000
C288        C  0.57722258  0.97514025  0.29090838    -0.13560
C289        C  0.28631338  0.24786443  0.11613413    -0.12080
C290        C  0.25021776  0.23436532  0.11081177     0.10070
C291        C  0.21369379  0.24751231  0.10584546    -0.12080
C292        C  0.21326510  0.27359220  0.10621846    -0.12080
C293        C  0.24935135  0.28709162  0.11156635     0.10070
C294        C  0.28588471  0.27394631  0.11650684    -0.12080
H295        H  0.31505312  0.23830933  0.11969564     0.14060
H296        H  0.18525551  0.23767698  0.10203400     0.14060
H297        H  0.18451558  0.28314228  0.10267901     0.14060
H298        H  0.31431345  0.28378639  0.12034005     0.14060
C299        C  0.38302423  0.05730565  0.18107021    -0.12000
C300        C  0.40810722  0.04655857  0.19507330    -0.13560
C301        C  0.90063447  0.97508531  0.45183807    -0.12000
C302        C  0.87341202  0.96439967  0.43972799    -0.13560
C303        C  0.08494875  0.04622120  0.03418344    -0.12000
C304        C  0.11221160  0.05695973  0.04619509    -0.13560
C305        C  0.07721737  0.97491228  0.44498454    -0.12000
C306        C  0.10227235  0.96415219  0.43095056    -0.13560
C307        C  0.77305531  0.24761880  0.10504179    -0.12080
C308        C  0.75022111  0.23433237  0.12497652     0.10070
C309        C  0.72690589  0.24778460  0.14450954    -0.12080
C310        C  0.72640401  0.27386228  0.14409593    -0.12080
C311        C  0.74920916  0.28714542  0.12414051     0.10070
C312        C  0.77255319  0.27369198  0.10462815    -0.12080
H313        H  0.79102717  0.23794777  0.08947087     0.14060
H314        H  0.70927865  0.23824635  0.16036788     0.14060
H315        H  0.70841409  0.28354117  0.15965353     0.14060
H316        H  0.79016216  0.28322242  0.08875622     0.14060
C317        C  0.61204527  0.05710681  0.18993745    -0.12000
C318        C  0.58474189  0.04642537  0.20196254    -0.13560
C319        C  0.90824889  0.04632198  0.04108735    -0.12000
C320        C  0.88308621  0.05704288  0.05506705    -0.13560
N321        N  0.81713619  0.10026394  0.59093983    -0.26020
N322        N  0.80078883  0.07880189  0.59886628    -0.33880
C323        C  0.82211318  0.05996680  0.58729383     0.02320
C324        C  0.85318187  0.07017346  0.57144344     0.08340
C325        C  0.84926734  0.09567237  0.57413541    -0.04750
H326        H  0.81531689  0.04035125  0.59011221     0.09010
H327        H  0.86816785  0.10986704  0.56450525     0.10210
Cu328      Cu  0.74993326  0.07611608  0.62469034     0.44170
Cu329      Cu  0.79495740  0.13488106  0.60286859     0.41990
Cu330      Cu  0.70636028  0.13487592  0.64783079     0.43880
N331        N  0.69857313  0.07880813  0.65004356    -0.33410
N332        N  0.68276288  0.10026881  0.65844038    -0.27660
C333        C  0.64946794  0.09569239  0.67416685    -0.03760
C334        C  0.64423807  0.07020442  0.67567143     0.08450
C335        C  0.67572167  0.05998514  0.66022719     0.02250
H336        H  0.63038385  0.10989230  0.68359996     0.09900
H337        H  0.68147400  0.04037469  0.65647246     0.08980
N338        N  0.73467667  0.16711819  0.63381343    -0.34860
N339        N  0.76699755  0.16712198  0.61723000    -0.27040
C340        C  0.77758412  0.19083229  0.61159014    -0.02280
C341        C  0.75062469  0.20663678  0.62533222     0.06330
C342        C  0.72384989  0.19082438  0.63923986     0.04430
H343        H  0.80321350  0.19604339  0.59853302     0.09530
H344        H  0.69796886  0.19602626  0.65206556     0.08370
O345        O  0.94994413  0.04375394  0.00142085    -0.71670
O346        O  0.03311015  0.00848259  0.95388188    -0.72660
O347        O  0.94615026  0.00856022  0.95726894    -0.61270
O348        O  0.03689501  0.04369441  0.99801967    -0.69690
O349        O  0.03940150  0.01273786  0.52881334    -0.69240
O350        O  0.94863049  0.97759404  0.98805199    -0.60490
O351        O  0.03558015  0.97752404  0.98467260    -0.73000
O352        O  0.95242639  0.01279076  0.53220567    -0.71780
Cu353      Cu  0.99143710  0.02721790  0.97656396     1.04560
Cu354      Cu  0.99409775  0.99406744  0.50952251     1.04330
C355        C  0.93813876  0.03376686  0.52421141     0.94520
C356        C  0.04738058  0.98750048  0.96187653     0.93660
C357        C  0.93316784  0.98760350  0.96632027     0.85810
C358        C  0.05238018  0.03369230  0.51974575     0.92080
N359        N  0.31765946  0.10047847  0.64467797    -0.26020
N360        N  0.30098362  0.07901170  0.63706976    -0.33880
C361        C  0.32202766  0.06020017  0.64889763     0.02320
C362        C  0.35324461  0.07042192  0.66459721     0.08340
C363        C  0.34971404  0.09590893  0.66154989    -0.04750
H364        H  0.31495084  0.04059004  0.64634304     0.09010
H365        H  0.36884153  0.11011088  0.67096735     0.10210
Cu366      Cu  0.25005679  0.07625612  0.61134522     0.44170
Cu367      Cu  0.29599347  0.13507964  0.63225886     0.41990
Cu368      Cu  0.20551032  0.13493001  0.58903209     0.43880
N369        N  0.19858623  0.07884769  0.58611454    -0.33410
N370        N  0.18240534  0.10028506  0.57800142    -0.27660
C371        C  0.14914861  0.09564239  0.56225956    -0.03760
C372        C  0.14431849  0.07013514  0.56047223     0.08450
C373        C  0.17600746  0.05997594  0.57575262     0.02250
H374        H  0.12979482  0.10980647  0.55303322     0.09900
H375        H  0.18206522  0.04037100  0.57929488     0.08980
N376        N  0.23413195  0.16721915  0.60269020    -0.34860
N377        N  0.26765505  0.16728495  0.61814310    -0.27040
C378        C  0.27871920  0.19102508  0.62324249    -0.02280
C379        C  0.25063058  0.20672702  0.61051590     0.06330
C380        C  0.22276824  0.19090811  0.59769845     0.04430
H381        H  0.30488628  0.19637656  0.63573871     0.09530
H382        H  0.19634703  0.19614449  0.58540899     0.08370
N383        N  0.66823610  0.92121477  0.84078206    -0.26020
N384        N  0.68482376  0.94267086  0.84851817    -0.33880
C385        C  0.66363701  0.96150549  0.83685076     0.02320
C386        C  0.63241729  0.95130557  0.82113170     0.08340
C387        C  0.63609713  0.92581241  0.82399798    -0.04750
H388        H  0.67059973  0.98111609  0.83954293     0.09010
H389        H  0.61699741  0.91162434  0.81452870     0.10210
Cu390      Cu  0.73575620  0.94537805  0.87425891     0.44170
Cu391      Cu  0.69003178  0.88658053  0.85295011     0.41990
Cu392      Cu  0.77980183  0.88664277  0.89680015     0.43880
N393        N  0.78714406  0.94270075  0.89957027    -0.33410
N394        N  0.80313731  0.92123350  0.90775528    -0.27660
C395        C  0.83635423  0.92580449  0.92355844    -0.03760
C396        C  0.84134936  0.95129824  0.92532481     0.08450
C397        C  0.80980482  0.96152503  0.90995908     0.02250
H398        H  0.85554226  0.91159962  0.93286730     0.09900
H399        H  0.80387889  0.98114237  0.90640085     0.08980
N400        N  0.75128062  0.85438956  0.88299105    -0.34860
N401        N  0.71816902  0.85434633  0.86714471    -0.27040
C402        C  0.70725043  0.83061587  0.86186307    -0.02280
C403        C  0.73495749  0.81487094  0.87494329     0.06330
C404        C  0.76245688  0.83069970  0.88813578     0.04430
H405        H  0.68139246  0.82532699  0.84904688     0.09530
H406        H  0.78856099  0.82549859  0.90074604     0.08370
O407        O  0.53542869  0.97770584  0.75130687    -0.71670
O408        O  0.45223928  0.01300016  0.70388121    -0.72660
O409        O  0.53919256  0.01295433  0.70726491    -0.61270
O410        O  0.44845916  0.97772305  0.74791859    -0.69690
O411        O  0.44590112  0.00863012  0.77879971    -0.69240
O412        O  0.53666860  0.04387493  0.73813292    -0.60490
O413        O  0.44971925  0.04391466  0.73475589    -0.73000
O414        O  0.53290291  0.00862207  0.78217919    -0.71780
Cu415      Cu  0.49391602  0.99425236  0.72650746     1.04560
Cu416      Cu  0.49120511  0.02735314  0.75955811     1.04330
C417        C  0.54724250  0.98767526  0.77411134     0.94520
C418        C  0.43794621  0.03396492  0.71193200     0.93660
C419        C  0.55216253  0.03389736  0.71638060     0.85810
C420        C  0.43294124  0.98768538  0.76966944     0.92080
N421        N  0.30308766  0.92102841  0.82805445    -0.26020
N422        N  0.28667578  0.94247542  0.83594180    -0.33880
C423        C  0.30911846  0.96134219  0.82544413     0.02320
C424        C  0.34095405  0.95117582  0.81029490     0.08340
C425        C  0.33634662  0.92566390  0.81230446    -0.04750
H426        H  0.30288927  0.98095287  0.82882670     0.09010
H427        H  0.35588489  0.91149491  0.80325339     0.10210
Cu428      Cu  0.23510301  0.94509534  0.86108691     0.44170
Cu429      Cu  0.28030463  0.88638869  0.83945902     0.41990
Cu430      Cu  0.18854090  0.88631312  0.88148233     0.43880
N431        N  0.18412893  0.94237935  0.88678294    -0.33410
N432        N  0.16724668  0.92093071  0.89422800    -0.27660
C433        C  0.13526504  0.92552606  0.91116881    -0.03760
C434        C  0.13197771  0.95101084  0.91441311     0.08450
C435        C  0.16327493  0.96120269  0.89876628     0.02250
H436        H  0.11599990  0.91134367  0.92048105     0.09900
H437        H  0.17052721  0.98080107  0.89634526     0.08980
N438        N  0.21713634  0.85407444  0.86762744    -0.34860
N439        N  0.25145353  0.85411499  0.85297520    -0.27040
C440        C  0.26319222  0.83041257  0.84842256    -0.02280
C441        C  0.23463239  0.81467100  0.86054705     0.06330
C442        C  0.20578583  0.83033544  0.87246384     0.04430
H443        H  0.29027534  0.82506786  0.83686087     0.09530
H444        H  0.17901176  0.82491842  0.88432256     0.08370
N445        N  0.80652039  0.60053958  0.90511786    -0.26020
N446        N  0.79063009  0.57905440  0.89683416    -0.33880
C447        C  0.81305622  0.56024955  0.90743067     0.02320
C448        C  0.84434462  0.57050407  0.92303439     0.08340
C449        C  0.83944252  0.59599511  0.92119909    -0.04750
H450        H  0.80705431  0.54062249  0.90393670     0.09010
H451        H  0.85840610  0.61021435  0.93073678     0.10210
Cu452      Cu  0.73944646  0.57628328  0.87137227     0.44170
Cu453      Cu  0.78318049  0.63511395  0.89418236     0.41990
Cu454      Cu  0.69338181  0.63495725  0.85036532     0.43880
N455        N  0.68832981  0.57888189  0.84583354    -0.33410
N456        N  0.67160894  0.60030707  0.83819926    -0.27660
C457        C  0.63916558  0.59565198  0.82170032    -0.03760
C458        C  0.63544045  0.57015153  0.81891576     0.08450
C459        C  0.66693340  0.56000493  0.83438619     0.02250
H460        H  0.61980769  0.60980122  0.81245008     0.09900
H461        H  0.67385199  0.54040377  0.83713730     0.08980
N462        N  0.72104550  0.66724133  0.86489356    -0.34860
N463        N  0.75416837  0.66729973  0.88072837    -0.27040
C464        C  0.76474261  0.69102467  0.88632605    -0.02280
C465        C  0.73681268  0.70675950  0.87345812     0.06330
C466        C  0.70951704  0.69092709  0.86007147     0.04430
H467        H  0.79063575  0.69630947  0.89911036     0.09530
H468        H  0.68342884  0.69613059  0.84744645     0.08370
N469        N  0.81357662  0.42124081  0.58797986    -0.26020
N470        N  0.79708829  0.44268716  0.59579422    -0.33880
C471        C  0.81863763  0.46154440  0.58445323     0.02320
C472        C  0.84999711  0.45136430  0.56886937     0.08340
C473        C  0.84603339  0.42586292  0.57147844    -0.04750
H474        H  0.81189642  0.48115564  0.58733802     0.09010
H475        H  0.86521873  0.41169089  0.56208936     0.10290
Cu476      Cu  0.74605538  0.44533350  0.62141442     0.44170
Cu477      Cu  0.79145702  0.38661185  0.59991567     0.41990
Cu478      Cu  0.70288203  0.38654223  0.64486096     0.43880
N479        N  0.69493952  0.44259625  0.64694865    -0.33410
N480        N  0.67926395  0.42112818  0.65545660    -0.27660
C481        C  0.64630196  0.42569090  0.67149907    -0.03760
C482        C  0.64115755  0.45117572  0.67308443     0.08450
C483        C  0.67233832  0.46141057  0.65737065     0.02250
H484        H  0.62748502  0.41148693  0.68118735     0.09900
H485        H  0.67815421  0.48102817  0.65368936     0.08980
N486        N  0.73166773  0.35433251  0.63125627    -0.34860
N487        N  0.76398919  0.35435464  0.61467495    -0.27040
C488        C  0.77518505  0.33065836  0.60956121    -0.02280
C489        C  0.74864379  0.31483708  0.62366596     0.06330
C490        C  0.72144724  0.33062428  0.63720900     0.04430
H491        H  0.80104630  0.32547359  0.59671055     0.09530
H492        H  0.69579493  0.32539783  0.65023933     0.08370
N493        N  0.30697272  0.60062121  0.83172339    -0.26020
N494        N  0.29070010  0.57918443  0.83980482    -0.33880
C495        C  0.31284110  0.56029915  0.82909193     0.02320
C496        C  0.34433771  0.57043826  0.81359985     0.08340
C497        C  0.33984903  0.59595448  0.81562364    -0.04750
H498        H  0.30652400  0.54069219  0.83245321     0.09010
H499        H  0.35909831  0.61010446  0.80623539     0.10210
Cu500      Cu  0.23940791  0.57654654  0.86516496     0.44170
Cu501      Cu  0.28419837  0.63529107  0.84301052     0.41990
Cu502      Cu  0.19243651  0.63525595  0.88501422     0.43880
N503        N  0.18821631  0.57923512  0.89060951    -0.33410
N504        N  0.17117240  0.60067730  0.89786332    -0.27660
C505        C  0.13880239  0.59608171  0.91445591    -0.03760
C506        C  0.13544546  0.57060104  0.91766938     0.08450
C507        C  0.16708817  0.56040845  0.90236829     0.02250
H508        H  0.11920927  0.61025368  0.92344484     0.09900
H509        H  0.17427141  0.54080743  0.89992389     0.08980
N510        N  0.22046347  0.66749854  0.87066859    -0.34860
N511        N  0.25478483  0.66753725  0.85602211    -0.27040
C512        C  0.26582379  0.69127077  0.85085098    -0.02280
C513        C  0.23677770  0.70693044  0.86254979     0.06330
C514        C  0.20840887  0.69119334  0.87488406     0.04430
H515        H  0.29264795  0.69668210  0.83904258     0.09530
H516        H  0.18136752  0.69654284  0.88648886     0.08370
O517        O  0.94902518  0.54406974  0.98760244    -0.71670
O518        O  0.03789490  0.50875477  0.52994395    -0.72660
O519        O  0.03605657  0.54406151  0.98591075    -0.61270
O520        O  0.95083508  0.50877732  0.53166175    -0.69690
O521        O  0.94948817  0.47788857  0.00071590    -0.69240
O522        O  0.03472566  0.51317803  0.95495775    -0.60490
O523        O  0.03651821  0.47787452  0.99898805    -0.73000
O524        O  0.94768330  0.51317684  0.95666135    -0.71780
Cu525      Cu  0.99349849  0.52750864  0.50987255     1.04560
Cu526      Cu  0.99205386  0.49443665  0.97674057     1.04330
C527        C  0.93443127  0.53412387  0.96554307     0.94520
C528        C  0.05114936  0.48781403  0.52103627     0.93660
C529        C  0.04876161  0.53411913  0.96332132     0.85810
C530        C  0.93679547  0.48783567  0.52330812     0.92080
O531        O  0.44746023  0.51280694  0.77998699    -0.71670
O532        O  0.53631308  0.47753126  0.73754347    -0.72660
O533        O  0.53452118  0.51275524  0.78168892    -0.61270
O534        O  0.44929858  0.47754862  0.73583449    -0.69690
O535        O  0.45067133  0.50848132  0.70497236    -0.69240
O536        O  0.53588749  0.54368544  0.75082302    -0.60490
O537        O  0.53768369  0.50846965  0.70668677    -0.73000
O538        O  0.44886802  0.54372959  0.74911407    -0.71780
Cu539      Cu  0.49184443  0.49406526  0.75985496     1.04560
Cu540      Cu  0.49332102  0.52718515  0.72681336     1.04330
C541        C  0.43424812  0.53377515  0.77115065     0.94520
C542        C  0.55092502  0.48751090  0.71551613     0.93660
C543        C  0.54858536  0.53369992  0.77337984     0.85810
C544        C  0.43665024  0.48751749  0.71325528     0.92080
N545        N  0.17924505  0.42109942  0.58084859    -0.26020
N546        N  0.19533395  0.44253643  0.58911444    -0.33880
C547        C  0.17296225  0.46141222  0.57862383     0.02320
C548        C  0.14150020  0.45126033  0.56310213     0.08340
C549        C  0.14624965  0.42575210  0.56487249    -0.04750
H550        H  0.17908615  0.48101848  0.58216720     0.09010
H551        H  0.12709453  0.41159470  0.55539796     0.10210
Cu552      Cu  0.24661573  0.44517285  0.61449333     0.44170
Cu553      Cu  0.20233812  0.38643846  0.59175484     0.41990
Cu554      Cu  0.29281907  0.38642751  0.63496378     0.43880
N555        N  0.29768619  0.44246304  0.64005059    -0.33410
N556        N  0.31446692  0.42100509  0.64750381    -0.27660
C557        C  0.34677940  0.42558115  0.66415171    -0.03760
C558        C  0.35035580  0.45106620  0.66721614     0.08450
C559        C  0.31891419  0.46128221  0.65175614     0.02250
H560        H  0.36612624  0.41138981  0.67333185     0.09900
H561        H  0.31189053  0.48089174  0.64921002     0.08980
N562        N  0.26493618  0.35420048  0.62045584    -0.34860
N563        N  0.23140934  0.35418659  0.60500760    -0.27040
C564        C  0.22061446  0.33046797  0.59953749    -0.02280
C565        C  0.24887765  0.31472698  0.61202247     0.06330
C566        C  0.27657271  0.33049993  0.62507517     0.04430
H567        H  0.19439639  0.32516350  0.58706645     0.09530
H568        H  0.30294998  0.32521772  0.63738409     0.08370
C569        C  0.38059572  0.46419130  0.68330372    -0.12000
C570        C  0.40615425  0.47493641  0.69692306    -0.13560
C571        C  0.08307978  0.47523426  0.53601144    -0.12000
C572        C  0.10986765  0.46445595  0.54842210    -0.13560
C573        C  0.10507160  0.55745297  0.93361049    -0.12000
C574        C  0.07937681  0.54669626  0.94709426    -0.13560
C575        C  0.37577826  0.55721211  0.79873956    -0.12000
C576        C  0.40242006  0.54638785  0.78621523    -0.13560
C577        C  0.60955304  0.46427125  0.68790590    -0.12000
C578        C  0.58280666  0.47496578  0.70045370    -0.13560
C579        C  0.90618684  0.47526895  0.53955179    -0.12000
C580        C  0.88046770  0.46452646  0.55302848    -0.13560
C581        C  0.87587422  0.55741293  0.93792844    -0.12000
C582        C  0.90257308  0.54669961  0.95049529    -0.13560
C583        C  0.60498451  0.55696448  0.80308521    -0.12000
C584        C  0.57923632  0.54622766  0.78962578    -0.13560
C585        C  0.19830017  0.77355583  0.86139962    -0.12080
C586        C  0.23515150  0.78710692  0.86101261     0.10070
C587        C  0.27252833  0.77412535  0.86113614    -0.12080
C588        C  0.27305119  0.74804528  0.86163255    -0.12080
C589        C  0.23620586  0.73449183  0.86201573     0.10070
C590        C  0.19882322  0.74746999  0.86189581    -0.12080
H591        H  0.16908420  0.78312355  0.86098612     0.14060
H592        H  0.30136301  0.78414354  0.86120797     0.14060
H593        H  0.30227248  0.73848516  0.86206891     0.14060
H594        H  0.16999389  0.73744432  0.86184662     0.14060
C595        C  0.37307223  0.96435890  0.79602868    -0.12000
C596        C  0.40035192  0.97512249  0.78405841    -0.13560
C597        C  0.77102303  0.77401045  0.88189992    -0.12080
C598        C  0.73537300  0.78720113  0.87463818     0.10070
C599        C  0.70017314  0.77369460  0.86701841    -0.12080
C600        C  0.70062774  0.74761382  0.86664794    -0.12080
C601        C  0.73629251  0.73442668  0.87388852     0.10070
C602        C  0.77147781  0.74793572  0.88152891    -0.12080
H603        H  0.79884533  0.78377836  0.88754745     0.14060
H604        H  0.67203882  0.78321442  0.86162079     0.14060
H605        H  0.67282160  0.73783604  0.86098120     0.14060
H606        H  0.79962876  0.73842657  0.88690711     0.14060
C607        C  0.60246783  0.96443413  0.80481507    -0.12000
C608        C  0.57722261  0.97514030  0.79090841    -0.13560
C609        C  0.28631338  0.24786443  0.61613414    -0.12080
C610        C  0.25021776  0.23436531  0.61081177     0.10070
C611        C  0.21369379  0.24751230  0.60584546    -0.12080
C612        C  0.21326509  0.27359219  0.60621847    -0.12080
C613        C  0.24935134  0.28709161  0.61156636     0.10070
C614        C  0.28588470  0.27394630  0.61650686    -0.12080
H615        H  0.31505312  0.23830933  0.61969564     0.14060
H616        H  0.18525552  0.23767697  0.60203399     0.14060
H617        H  0.18451557  0.28314226  0.60267902     0.14060
H618        H  0.31431344  0.28378638  0.62034008     0.14060
C619        C  0.38302423  0.05730562  0.68107020    -0.12000
C620        C  0.40810722  0.04655855  0.69507329    -0.13560
C621        C  0.90063449  0.97508530  0.95183807    -0.12000
C622        C  0.87341205  0.96439965  0.93972799    -0.13560
C623        C  0.08494875  0.04622119  0.53418344    -0.12000
C624        C  0.11221160  0.05695972  0.54619509    -0.13560
C625        C  0.07721737  0.97491227  0.94498455    -0.12000
C626        C  0.10227234  0.96415219  0.93095056    -0.13560
C627        C  0.77305533  0.24761879  0.60504179    -0.12080
C628        C  0.75022112  0.23433236  0.62497651     0.10070
C629        C  0.72690589  0.24778460  0.64450953    -0.12080
C630        C  0.72640401  0.27386227  0.64409592    -0.12080
C631        C  0.74920917  0.28714541  0.62414051     0.10070
C632        C  0.77255321  0.27369197  0.60462815    -0.12080
H633        H  0.79102719  0.23794777  0.58947087     0.14060
H634        H  0.70927864  0.23824634  0.66036786     0.14060
H635        H  0.70841408  0.28354116  0.65965352     0.14060
H636        H  0.79016219  0.28322241  0.58875622     0.14060
C637        C  0.61204526  0.05710681  0.68993745    -0.12000
C638        C  0.58474189  0.04642538  0.70196254    -0.13560
C639        C  0.90824889  0.04632197  0.54108735    -0.12000
C640        C  0.88308621  0.05704287  0.55506705    -0.13560
loop_ 
_geom_bond_atom_site_label_1 
_geom_bond_atom_site_label_2 
_geom_bond_distance 
_geom_bond_site_symmetry_2 
_ccdc_geom_bond_type 
N1            N2   1.323       .  A
N1            C5   1.345       .  A
N1           Cu9   2.072       .  S
N2            C3   1.346       .  A
N2           Cu8   2.075       .  S
C3            C4   1.380       .  A
C3            H6   1.083       .  S
C4            C5   1.379       .  A
C4          C320   1.437       .  S
C5            H7   1.082       .  S
Cu8          N11   2.075       .  S
Cu9          N19   2.072       .  S
Cu10         N12   2.071       .  S
Cu10         N18   2.071       .  S
N11          N12   1.323       .  A
N11          C15   1.346       .  A
N12          C13   1.345       .  A
C13          C14   1.378       .  A
C13          H16   1.082       .  S
C14          C15   1.380       .  A
C14         C317   1.436       .  S
C15          H17   1.083       .  S
N18          N19   1.321       .  A
N18          C22   1.344       .  A
N19          C20   1.344       .  A
C20          C21   1.388       .  A
C20          H23   1.081       .  S
C21          C22   1.388       .  A
C21         C308   1.484       .  S
C22          H24   1.081       .  S
O25         Cu33   2.010       .  S
O25         C355   1.276       .  A
O26         Cu33   2.010   1_455  S
O26          C36   1.276   1_545  A
O27         Cu33   2.009       .  S
O27          C37   1.276   1_545  A
O28         Cu33   2.009   1_455  S
O28         C358   1.276       .  A
O29         Cu34   2.010   1_445  S
O29          C38   1.276       .  A
O30        Cu354   2.009       .  S
O30          C37   1.276       .  A
O31        Cu354   2.009   1_455  S
O31          C36   1.276       .  A
O32         Cu34   2.010   1_545  S
O32          C35   1.276       .  A
Cu33       Cu354   2.380   1_545  S
Cu34        O350   2.009   1_554  S
Cu34        O351   2.009   1_654  S
Cu34       Cu353   2.380   1_564  S
C35         C319   1.435       .  S
C35         O345   1.276       .  A
C36         C305   1.435       .  S
C37         C301   1.434       .  S
C38         C303   1.435       .  S
C38         O348   1.276   1_554  A
N39          N40   1.323       .  A
N39          C43   1.345       .  A
N39         Cu47   2.073       .  S
N40          C41   1.346       .  A
N40         Cu46   2.075       .  S
C41          C42   1.380       .  A
C41          H44   1.083       .  S
C42          C43   1.379       .  A
C42         C299   1.436       .  S
C43          H45   1.082       .  S
Cu46         N49   2.074       .  S
Cu47         N57   2.072       .  S
Cu48         N50   2.072       .  S
Cu48         N56   2.072       .  S
N49          N50   1.323       .  A
N49          C53   1.346       .  A
N50          C51   1.345       .  A
C51          C52   1.379       .  A
C51          H54   1.082       .  S
C52          C53   1.380       .  A
C52         C304   1.436       .  S
C53          H55   1.083       .  S
N56          N57   1.321       .  A
N56          C60   1.344       .  A
N57          C58   1.345       .  A
C58          C59   1.386       .  A
C58          H61   1.082       .  S
C59          C60   1.386       .  A
C59         C290   1.481       .  S
C60          H62   1.081       .  S
N63          N64   1.323       .  A
N63          C67   1.345       .  A
N63         Cu71   2.072       .  S
N64          C65   1.346       .  A
N64         Cu70   2.075       .  S
C65          C66   1.380       .  A
C65          H68   1.083       .  S
C66          C67   1.379       .  A
C66         C287   1.436       .  S
C67          H69   1.082       .  S
Cu70         N73   2.075       .  S
Cu71         N81   2.072       .  S
Cu72         N74   2.071       .  S
Cu72         N80   2.071       .  S
N73          N74   1.323       .  A
N73          C77   1.346       .  A
N74          C75   1.345       .  A
C75          C76   1.378       .  A
C75          H78   1.082       .  S
C76          C77   1.380       .  A
C76         C302   1.436       .  S
C77          H79   1.083       .  S
N80          N81   1.321       .  A
N80          C84   1.344       .  A
N81          C82   1.344       .  A
C82          C83   1.387       .  A
C82          H85   1.081       .  S
C83          C84   1.387       .  A
C83         C278   1.483       .  S
C84          H86   1.081       .  S
O87         Cu95   2.009       .  S
O87          C97   1.276       .  A
O88         Cu95   2.010   1_545  S
O88          C98   1.276       .  A
O89         Cu95   2.009   1_545  S
O89          C99   1.276       .  A
O90         Cu95   2.009       .  S
O90         C100   1.276       .  A
O91         Cu96   2.010       .  S
O91         C100   1.276   1_545  A
O92         Cu96   2.009       .  S
O92          C99   1.276       .  A
O93         Cu96   2.009       .  S
O93          C98   1.276       .  A
O94         Cu96   2.009       .  S
O94          C97   1.276   1_545  A
Cu95        Cu96   2.380   1_565  S
C97         C288   1.435       .  S
C98         C300   1.435       .  S
C99         C318   1.434       .  S
C100        C276   1.435       .  S
N101        N102   1.323       .  A
N101        C105   1.345       .  A
N101       Cu109   2.073       .  S
N102        C103   1.346       .  A
N102       Cu108   2.075       .  S
C103        C104   1.380       .  A
C103        H106   1.083       .  S
C104        C105   1.379       .  A
C104        C275   1.437       .  S
C105        H107   1.082       .  S
Cu108       N111   2.075       .  S
Cu109       N119   2.073       .  S
Cu110       N112   2.073       .  S
Cu110       N118   2.073       .  S
N111        N112   1.323       .  A
N111        C115   1.346       .  A
N112        C113   1.345       .  A
C113        C114   1.379       .  A
C113        H116   1.082       .  S
C114        C115   1.380       .  A
C114        C306   1.437       .  S
C115        H117   1.083       .  S
N118        N119   1.322       .  A
N118        C122   1.345       .  A
N119        C120   1.345       .  A
C120        C121   1.385       .  A
C120        H123   1.082       .  S
C121        C122   1.385       .  A
C121        C266   1.478       .  S
C122        H124   1.082       .  S
N125        N126   1.323       .  A
N125        C129   1.345       .  A
N125       Cu133   2.071       .  S
N126        C127   1.346       .  A
N126       Cu132   2.074       .  S
C127        C128   1.379       .  A
C127        H130   1.083       .  S
C128        C129   1.378       .  A
C128        C261   1.436       .  S
C129        H131   1.082       .  S
Cu132       N135   2.074       .  S
Cu133       N143   2.071       .  S
Cu134       N136   2.071       .  S
Cu134       N142   2.071       .  S
N135        N136   1.323       .  A
N135        C139   1.346       .  A
N136        C137   1.345       .  A
C137        C138   1.378       .  A
C137        H140   1.082       .  S
C138        C139   1.379       .  A
C138        C263   1.436       .  S
C139        H141   1.083       .  S
N142        N143   1.321       .  A
N142        C146   1.344       .  A
N143        C144   1.344       .  A
C144        C145   1.387       .  A
C144        H147   1.081       .  S
C145        C146   1.387       .  A
C145        C281   1.483       .  S
C146        H148   1.081       .  S
N149        N150   1.323       .  A
N149        C153   1.345       .  A
N149       Cu157   2.072       .  S
N150        C151   1.346       .  A
N150       Cu156   2.074       .  S
C151        C152   1.379       .  A
C151        H154   1.083       .  S
C152        C153   1.378       .  A
C152        C260   1.436       .  S
C153        H155   1.082       .  S
Cu156       N159   2.074       .  S
Cu157       N167   2.072       .  S
Cu158       N160   2.071       .  S
Cu158       N166   2.071       .  S
N159        N160   1.323       .  A
N159        C163   1.346       .  A
N160        C161   1.345       .  A
C161        C162   1.378       .  A
C161        H164   1.082       .  S
C162        C163   1.379       .  A
C162        C257   1.436       .  S
C163        H165   1.083       .  S
N166        N167   1.321       .  A
N166        C170   1.344       .  A
N167        C168   1.344       .  A
C168        C169   1.388       .  A
C168        H171   1.081       .  S
C169        C170   1.387       .  A
C169        C311   1.484       .  S
C170        H172   1.081       .  S
N173        N174   1.323       .  A
N173        C177   1.345       .  A
N173       Cu181   2.073       .  S
N174        C175   1.346       .  A
N174       Cu180   2.073       .  S
C175        C176   1.379       .  A
C175        H178   1.083       .  S
C176        C177   1.379       .  A
C176        C255   1.436       .  S
C177        H179   1.082       .  S
Cu180       N183   2.073       .  S
Cu181       N191   2.073       .  S
Cu182       N184   2.072       .  S
Cu182       N190   2.072       .  S
N183        N184   1.323       .  A
N183        C187   1.346       .  A
N184        C185   1.345       .  A
C185        C186   1.379       .  A
C185        H188   1.082       .  S
C186        C187   1.379       .  A
C186        C253   1.436       .  S
C187        H189   1.083       .  S
N190        N191   1.322       .  A
N190        C194   1.345       .  A
N191        C192   1.345       .  A
C192        C193   1.385       .  A
C192        H195   1.082       .  S
C193        C194   1.384       .  A
C193        C269   1.477       .  S
C194        H196   1.082       .  S
O197       Cu525   2.009       .  S
O197        C207   1.276       .  A
O198       Cu205   2.009   1_455  S
O198        C208   1.276       .  A
O199       Cu525   2.008   1_455  S
O199        C209   1.276       .  A
O200       Cu205   2.009       .  S
O200        C210   1.276       .  A
O201       Cu206   2.009       .  S
O201        C530   1.276       .  A
O202       Cu206   2.009   1_455  S
O202        C209   1.276       .  A
O203       Cu206   2.008   1_455  S
O203        C528   1.276       .  A
O204       Cu206   2.008       .  S
O204        C207   1.276       .  A
Cu205       O517   2.009   1_554  S
Cu205       O519   2.008   1_654  S
Cu205      Cu526   2.380   1_554  S
Cu206      Cu525   2.380       .  S
C207        C262   1.434       .  S
C208        C251   1.434       .  S
C208        O523   1.276   1_554  A
C209        C254   1.434       .  S
C210        C259   1.434       .  S
C210        O521   1.276       .  A
O211       Cu219   2.009       .  S
O211        C221   1.276       .  A
O212       Cu219   2.009       .  S
O212        C222   1.276       .  A
O213       Cu219   2.009       .  S
O213        C223   1.276       .  A
O214       Cu219   2.009       .  S
O214        C224   1.276       .  A
O215       Cu220   2.009       .  S
O215        C224   1.276       .  A
O216       Cu220   2.008       .  S
O216        C223   1.276       .  A
O217       Cu220   2.008       .  S
O217        C222   1.276       .  A
O218       Cu220   2.008       .  S
O218        C221   1.276       .  A
Cu219      Cu220   2.380       .  S
C221        C256   1.434       .  S
C222        C258   1.434       .  S
C223        C264   1.434       .  S
C224        C250   1.434       .  S
N225        N226   1.323       .  A
N225        C229   1.345       .  A
N225       Cu233   2.072       .  S
N226        C227   1.346       .  A
N226       Cu232   2.074       .  S
C227        C228   1.379       .  A
C227        H230   1.083       .  S
C228        C229   1.379       .  A
C228        C252   1.436       .  S
C229        H231   1.082       .  S
Cu232       N235   2.074       .  S
Cu233       N243   2.072       .  S
Cu234       N236   2.072       .  S
Cu234       N242   2.072       .  S
N235        N236   1.323       .  A
N235        C239   1.346       .  A
N236        C237   1.345       .  A
C237        C238   1.378       .  A
C237        H240   1.082       .  S
C238        C239   1.379       .  A
C238        C249   1.436       .  S
C239        H241   1.083       .  S
N242        N243   1.321       .  A
N242        C246   1.344       .  A
N243        C244   1.345       .  A
C244        C245   1.386       .  A
C244        H247   1.081       .  S
C245        C246   1.386       .  A
C245        C293   1.481       .  S
C246        H248   1.081       .  S
C249        C250   1.205       .  T
C251        C252   1.205       .  T
C253        C254   1.205       .  T
C255        C256   1.205       .  T
C257        C258   1.205       .  T
C259        C260   1.205       .  T
C261        C262   1.205       .  T
C263        C264   1.205       .  T
C265        C266   1.404       .  A
C265        C270   1.398       .  A
C265        H271   1.083       .  S
C266        C267   1.404       .  A
C267        C268   1.398       .  A
C267        H272   1.083       .  S
C268        C269   1.404       .  A
C268        H273   1.083       .  S
C269        C270   1.404       .  A
C270        H274   1.083       .  S
C275        C276   1.206       .  T
C277        C278   1.405       .  A
C277        C282   1.398       .  A
C277        H283   1.082       .  S
C278        C279   1.405       .  A
C279        C280   1.398       .  A
C279        H284   1.082       .  S
C280        C281   1.405       .  A
C280        H285   1.082       .  S
C281        C282   1.405       .  A
C282        H286   1.082       .  S
C287        C288   1.206       .  T
C289        C290   1.405       .  A
C289        C294   1.398       .  A
C289        H295   1.082       .  S
C290        C291   1.405       .  A
C291        C292   1.398       .  A
C291        H296   1.082       .  S
C292        C293   1.405       .  A
C292        H297   1.082       .  S
C293        C294   1.405       .  A
C294        H298   1.082       .  S
C299        C300   1.206       .  T
C301        C302   1.205       .  T
C303        C304   1.205       .  T
C305        C306   1.206       .  T
C307        C308   1.406       .  A
C307        C312   1.398       .  A
C307        H313   1.082       .  S
C308        C309   1.406       .  A
C309        C310   1.398       .  A
C309        H314   1.082       .  S
C310        C311   1.406       .  A
C310        H315   1.082       .  S
C311        C312   1.405       .  A
C312        H316   1.082       .  S
C317        C318   1.205       .  T
C319        C320   1.206       .  T
N321        N322   1.323       .  A
N321        C325   1.345       .  A
N321       Cu329   2.072       .  S
N322        C323   1.346       .  A
N322       Cu328   2.075       .  S
C323        C324   1.380       .  A
C323        H326   1.083       .  S
C324        C325   1.379       .  A
C324        C640   1.437       .  S
C325        H327   1.082       .  S
Cu328       N331   2.075       .  S
Cu329       N339   2.072       .  S
Cu330       N332   2.071       .  S
Cu330       N338   2.071       .  S
N331        N332   1.323       .  A
N331        C335   1.346       .  A
N332        C333   1.345       .  A
C333        C334   1.378       .  A
C333        H336   1.082       .  S
C334        C335   1.380       .  A
C334        C637   1.436       .  S
C335        H337   1.083       .  S
N338        N339   1.321       .  A
N338        C342   1.344       .  A
N339        C340   1.344       .  A
C340        C341   1.388       .  A
C340        H343   1.081       .  S
C341        C342   1.388       .  A
C341        C628   1.484       .  S
C342        H344   1.081       .  S
O345       Cu353   2.010   1_554  S
O346       Cu353   2.010   1_455  S
O346        C356   1.276   1_545  A
O347       Cu353   2.009       .  S
O347        C357   1.276   1_545  A
O348       Cu353   2.009   1_455  S
O349       Cu354   2.010   1_445  S
O349        C358   1.276       .  A
O350        C357   1.276       .  A
O351        C356   1.276       .  A
O352       Cu354   2.010   1_545  S
O352        C355   1.276       .  A
C355        C639   1.435       .  S
C356        C625   1.435       .  S
C357        C621   1.434       .  S
C358        C623   1.435       .  S
N359        N360   1.323       .  A
N359        C363   1.345       .  A
N359       Cu367   2.073       .  S
N360        C361   1.346       .  A
N360       Cu366   2.075       .  S
C361        C362   1.380       .  A
C361        H364   1.083       .  S
C362        C363   1.379       .  A
C362        C619   1.436       .  S
C363        H365   1.082       .  S
Cu366       N369   2.074       .  S
Cu367       N377   2.072       .  S
Cu368       N370   2.072       .  S
Cu368       N376   2.072       .  S
N369        N370   1.323       .  A
N369        C373   1.346       .  A
N370        C371   1.345       .  A
C371        C372   1.379       .  A
C371        H374   1.082       .  S
C372        C373   1.380       .  A
C372        C624   1.436       .  S
C373        H375   1.083       .  S
N376        N377   1.321       .  A
N376        C380   1.344       .  A
N377        C378   1.345       .  A
C378        C379   1.386       .  A
C378        H381   1.082       .  S
C379        C380   1.386       .  A
C379        C610   1.481       .  S
C380        H382   1.081       .  S
N383        N384   1.323       .  A
N383        C387   1.345       .  A
N383       Cu391   2.072       .  S
N384        C385   1.346       .  A
N384       Cu390   2.075       .  S
C385        C386   1.380       .  A
C385        H388   1.083       .  S
C386        C387   1.379       .  A
C386        C607   1.436       .  S
C387        H389   1.082       .  S
Cu390       N393   2.075       .  S
Cu391       N401   2.072       .  S
Cu392       N394   2.071       .  S
Cu392       N400   2.071       .  S
N393        N394   1.323       .  A
N393        C397   1.346       .  A
N394        C395   1.345       .  A
C395        C396   1.378       .  A
C395        H398   1.082       .  S
C396        C397   1.380       .  A
C396        C622   1.436       .  S
C397        H399   1.083       .  S
N400        N401   1.321       .  A
N400        C404   1.344       .  A
N401        C402   1.344       .  A
C402        C403   1.387       .  A
C402        H405   1.081       .  S
C403        C404   1.387       .  A
C403        C598   1.483       .  S
C404        H406   1.081       .  S
O407       Cu415   2.009       .  S
O407        C417   1.276       .  A
O408       Cu415   2.010   1_545  S
O408        C418   1.276       .  A
O409       Cu415   2.009   1_545  S
O409        C419   1.276       .  A
O410       Cu415   2.009       .  S
O410        C420   1.276       .  A
O411       Cu416   2.010       .  S
O411        C420   1.276   1_545  A
O412       Cu416   2.009       .  S
O412        C419   1.276       .  A
O413       Cu416   2.009       .  S
O413        C418   1.276       .  A
O414       Cu416   2.009       .  S
O414        C417   1.276   1_545  A
Cu415      Cu416   2.380   1_565  S
C417        C608   1.435       .  S
C418        C620   1.435       .  S
C419        C638   1.434       .  S
C420        C596   1.435       .  S
N421        N422   1.323       .  A
N421        C425   1.345       .  A
N421       Cu429   2.073       .  S
N422        C423   1.346       .  A
N422       Cu428   2.075       .  S
C423        C424   1.380       .  A
C423        H426   1.083       .  S
C424        C425   1.379       .  A
C424        C595   1.437       .  S
C425        H427   1.082       .  S
Cu428       N431   2.075       .  S
Cu429       N439   2.073       .  S
Cu430       N432   2.073       .  S
Cu430       N438   2.073       .  S
N431        N432   1.323       .  A
N431        C435   1.346       .  A
N432        C433   1.345       .  A
C433        C434   1.379       .  A
C433        H436   1.082       .  S
C434        C435   1.380       .  A
C434        C626   1.437       .  S
C435        H437   1.083       .  S
N438        N439   1.322       .  A
N438        C442   1.345       .  A
N439        C440   1.345       .  A
C440        C441   1.385       .  A
C440        H443   1.082       .  S
C441        C442   1.385       .  A
C441        C586   1.478       .  S
C442        H444   1.082       .  S
N445        N446   1.323       .  A
N445        C449   1.345       .  A
N445       Cu453   2.071       .  S
N446        C447   1.346       .  A
N446       Cu452   2.074       .  S
C447        C448   1.379       .  A
C447        H450   1.083       .  S
C448        C449   1.378       .  A
C448        C581   1.436       .  S
C449        H451   1.082       .  S
Cu452       N455   2.074       .  S
Cu453       N463   2.071       .  S
Cu454       N456   2.071       .  S
Cu454       N462   2.071       .  S
N455        N456   1.323       .  A
N455        C459   1.346       .  A
N456        C457   1.345       .  A
C457        C458   1.378       .  A
C457        H460   1.082       .  S
C458        C459   1.379       .  A
C458        C583   1.436       .  S
C459        H461   1.083       .  S
N462        N463   1.321       .  A
N462        C466   1.344       .  A
N463        C464   1.344       .  A
C464        C465   1.387       .  A
C464        H467   1.081       .  S
C465        C466   1.387       .  A
C465        C601   1.483       .  S
C466        H468   1.081       .  S
N469        N470   1.323       .  A
N469        C473   1.345       .  A
N469       Cu477   2.072       .  S
N470        C471   1.346       .  A
N470       Cu476   2.074       .  S
C471        C472   1.379       .  A
C471        H474   1.083       .  S
C472        C473   1.378       .  A
C472        C580   1.436       .  S
C473        H475   1.082       .  S
Cu476       N479   2.074       .  S
Cu477       N487   2.072       .  S
Cu478       N480   2.071       .  S
Cu478       N486   2.071       .  S
N479        N480   1.323       .  A
N479        C483   1.346       .  A
N480        C481   1.345       .  A
C481        C482   1.378       .  A
C481        H484   1.082       .  S
C482        C483   1.379       .  A
C482        C577   1.436       .  S
C483        H485   1.083       .  S
N486        N487   1.321       .  A
N486        C490   1.344       .  A
N487        C488   1.344       .  A
C488        C489   1.388       .  A
C488        H491   1.081       .  S
C489        C490   1.387       .  A
C489        C631   1.484       .  S
C490        H492   1.081       .  S
N493        N494   1.323       .  A
N493        C497   1.345       .  A
N493       Cu501   2.073       .  S
N494        C495   1.346       .  A
N494       Cu500   2.073       .  S
C495        C496   1.379       .  A
C495        H498   1.083       .  S
C496        C497   1.379       .  A
C496        C575   1.436       .  S
C497        H499   1.082       .  S
Cu500       N503   2.073       .  S
Cu501       N511   2.073       .  S
Cu502       N504   2.072       .  S
Cu502       N510   2.072       .  S
N503        N504   1.323       .  A
N503        C507   1.346       .  A
N504        C505   1.345       .  A
C505        C506   1.379       .  A
C505        H508   1.082       .  S
C506        C507   1.379       .  A
C506        C573   1.436       .  S
C507        H509   1.083       .  S
N510        N511   1.322       .  A
N510        C514   1.345       .  A
N511        C512   1.345       .  A
C512        C513   1.385       .  A
C512        H515   1.082       .  S
C513        C514   1.384       .  A
C513        C589   1.477       .  S
C514        H516   1.082       .  S
O517        C527   1.276       .  A
O518       Cu525   2.009   1_455  S
O518        C528   1.276       .  A
O519        C529   1.276       .  A
O520       Cu525   2.009       .  S
O520        C530   1.276       .  A
O521       Cu526   2.009   1_554  S
O522       Cu526   2.009   1_455  S
O522        C529   1.276       .  A
O523       Cu526   2.008   1_455  S
O524       Cu526   2.008       .  S
O524        C527   1.276       .  A
C527        C582   1.434       .  S
C528        C571   1.434       .  S
C529        C574   1.434       .  S
C530        C579   1.434       .  S
O531       Cu539   2.009       .  S
O531        C541   1.276       .  A
O532       Cu539   2.009       .  S
O532        C542   1.276       .  A
O533       Cu539   2.009       .  S
O533        C543   1.276       .  A
O534       Cu539   2.009       .  S
O534        C544   1.276       .  A
O535       Cu540   2.009       .  S
O535        C544   1.276       .  A
O536       Cu540   2.008       .  S
O536        C543   1.276       .  A
O537       Cu540   2.008       .  S
O537        C542   1.276       .  A
O538       Cu540   2.008       .  S
O538        C541   1.276       .  A
Cu539      Cu540   2.380       .  S
C541        C576   1.434       .  S
C542        C578   1.434       .  S
C543        C584   1.434       .  S
C544        C570   1.434       .  S
N545        N546   1.323       .  A
N545        C549   1.345       .  A
N545       Cu553   2.072       .  S
N546        C547   1.346       .  A
N546       Cu552   2.074       .  S
C547        C548   1.379       .  A
C547        H550   1.083       .  S
C548        C549   1.379       .  A
C548        C572   1.436       .  S
C549        H551   1.082       .  S
Cu552       N555   2.074       .  S
Cu553       N563   2.072       .  S
Cu554       N556   2.072       .  S
Cu554       N562   2.072       .  S
N555        N556   1.323       .  A
N555        C559   1.346       .  A
N556        C557   1.345       .  A
C557        C558   1.378       .  A
C557        H560   1.082       .  S
C558        C559   1.379       .  A
C558        C569   1.436       .  S
C559        H561   1.083       .  S
N562        N563   1.321       .  A
N562        C566   1.344       .  A
N563        C564   1.345       .  A
C564        C565   1.386       .  A
C564        H567   1.081       .  S
C565        C566   1.386       .  A
C565        C613   1.481       .  S
C566        H568   1.081       .  S
C569        C570   1.205       .  T
C571        C572   1.205       .  T
C573        C574   1.205       .  T
C575        C576   1.205       .  T
C577        C578   1.205       .  T
C579        C580   1.205       .  T
C581        C582   1.205       .  T
C583        C584   1.205       .  T
C585        C586   1.404       .  A
C585        C590   1.398       .  A
C585        H591   1.083       .  S
C586        C587   1.404       .  A
C587        C588   1.398       .  A
C587        H592   1.083       .  S
C588        C589   1.404       .  A
C588        H593   1.083       .  S
C589        C590   1.404       .  A
C590        H594   1.083       .  S
C595        C596   1.206       .  T
C597        C598   1.405       .  A
C597        C602   1.398       .  A
C597        H603   1.082       .  S
C598        C599   1.405       .  A
C599        C600   1.398       .  A
C599        H604   1.082       .  S
C600        C601   1.405       .  A
C600        H605   1.082       .  S
C601        C602   1.405       .  A
C602        H606   1.082       .  S
C607        C608   1.206       .  T
C609        C610   1.405       .  A
C609        C614   1.398       .  A
C609        H615   1.082       .  S
C610        C611   1.405       .  A
C611        C612   1.398       .  A
C611        H616   1.082       .  S
C612        C613   1.405       .  A
C612        H617   1.082       .  S
C613        C614   1.405       .  A
C614        H618   1.082       .  S
C619        C620   1.206       .  T
C621        C622   1.205       .  T
C623        C624   1.205       .  T
C625        C626   1.206       .  T
C627        C628   1.406       .  A
C627        C632   1.398       .  A
C627        H633   1.082       .  S
C628        C629   1.406       .  A
C629        C630   1.398       .  A
C629        H634   1.082       .  S
C630        C631   1.406       .  A
C630        H635   1.082       .  S
C631        C632   1.405       .  A
C632        H636   1.082       .  S
C637        C638   1.205       .  T
C639        C640   1.206       .  T
